# generated using pymatgen
data_La3Ni4(P2O)2
_symmetry_space_group_name_H-M   'P 1'
_cell_length_a   13.29695970
_cell_length_b   13.29695970
_cell_length_c   13.29695970
_cell_angle_alpha   162.65842730
_cell_angle_beta   162.65842730
_cell_angle_gamma   24.62016321
_symmetry_Int_Tables_number   1
_chemical_formula_structural   La3Ni4(P2O)2
_chemical_formula_sum   'La3 Ni4 P4 O2'
_cell_volume   208.81850499
_cell_formula_units_Z   1
loop_
 _symmetry_equiv_pos_site_id
 _symmetry_equiv_pos_as_xyz
  1  'x, y, z'
loop_
 _atom_site_type_symbol
 _atom_site_label
 _atom_site_symmetry_multiplicity
 _atom_site_fract_x
 _atom_site_fract_y
 _atom_site_fract_z
 _atom_site_occupancy
  La  La0  1  0.29775500  0.29775500  0.00000000  1
  La  La1  1  0.70224500  0.70224500  0.00000000  1
  La  La2  1  0.00000000  0.00000000  0.00000000  1
  Ni  Ni3  1  0.59273000  0.09273000  0.50000000  1
  Ni  Ni4  1  0.40727000  0.90727000  0.50000000  1
  Ni  Ni5  1  0.09273000  0.59273000  0.50000000  1
  Ni  Ni6  1  0.90727000  0.40727000  0.50000000  1
  P  P7  1  0.13133300  0.13133300  0.00000000  1
  P  P8  1  0.86866700  0.86866700  0.00000000  1
  P  P9  1  0.44984100  0.44984100  0.00000000  1
  P  P10  1  0.55015900  0.55015900  0.00000000  1
  O  O11  1  0.75000000  0.25000000  0.50000000  1
  O  O12  1  0.25000000  0.75000000  0.50000000  1
