# generated using pymatgen
data_K2NdNb5O15
_symmetry_space_group_name_H-M   'P 1'
_cell_length_a   12.78511700
_cell_length_b   12.78511700
_cell_length_c   3.96739000
_cell_angle_alpha   90.00000000
_cell_angle_beta   90.00000000
_cell_angle_gamma   90.00000000
_symmetry_Int_Tables_number   1
_chemical_formula_structural   K2NdNb5O15
_chemical_formula_sum   'K4 Nd2 Nb10 O30'
_cell_volume   648.50646176
_cell_formula_units_Z   2
loop_
 _symmetry_equiv_pos_site_id
 _symmetry_equiv_pos_as_xyz
  1  'x, y, z'
loop_
 _atom_site_type_symbol
 _atom_site_label
 _atom_site_symmetry_multiplicity
 _atom_site_fract_x
 _atom_site_fract_y
 _atom_site_fract_z
 _atom_site_occupancy
  K  K0  1  0.66987800  0.16987800  0.50000000  1
  K  K1  1  0.33012200  0.83012200  0.50000000  1
  K  K2  1  0.16987800  0.33012200  0.50000000  1
  K  K3  1  0.83012200  0.66987800  0.50000000  1
  Nd  Nd4  1  0.00000000  0.00000000  0.50000000  1
  Nd  Nd5  1  0.50000000  0.50000000  0.50000000  1
  Nb  Nb6  1  0.50000000  0.00000000  0.00000000  1
  Nb  Nb7  1  0.00000000  0.50000000  0.00000000  1
  Nb  Nb8  1  0.21330700  0.07651300  0.00000000  1
  Nb  Nb9  1  0.78669300  0.92348700  0.00000000  1
  Nb  Nb10  1  0.07651300  0.78669300  0.00000000  1
  Nb  Nb11  1  0.71330700  0.42348700  0.00000000  1
  Nb  Nb12  1  0.92348700  0.21330700  0.00000000  1
  Nb  Nb13  1  0.28669300  0.57651300  0.00000000  1
  Nb  Nb14  1  0.57651300  0.71330700  0.00000000  1
  Nb  Nb15  1  0.42348700  0.28669300  0.00000000  1
  O  O16  1  0.18948100  0.07899000  0.50000000  1
  O  O17  1  0.81051900  0.92101000  0.50000000  1
  O  O18  1  0.07899000  0.81051900  0.50000000  1
  O  O19  1  0.68948100  0.42101000  0.50000000  1
  O  O20  1  0.92101000  0.18948100  0.50000000  1
  O  O21  1  0.31051900  0.57899000  0.50000000  1
  O  O22  1  0.57899000  0.68948100  0.50000000  1
  O  O23  1  0.42101000  0.31051900  0.50000000  1
  O  O24  1  0.21776100  0.71776100  0.00000000  1
  O  O25  1  0.78223900  0.28223900  0.00000000  1
  O  O26  1  0.71776100  0.78223900  0.00000000  1
  O  O27  1  0.28223900  0.21776100  0.00000000  1
  O  O28  1  0.50000000  0.00000000  0.50000000  1
  O  O29  1  0.00000000  0.50000000  0.50000000  1
  O  O30  1  0.05815100  0.13160600  0.00000000  1
  O  O31  1  0.94184900  0.86839400  0.00000000  1
  O  O32  1  0.13160600  0.94184900  0.00000000  1
  O  O33  1  0.55815100  0.36839400  0.00000000  1
  O  O34  1  0.86839400  0.05815100  0.00000000  1
  O  O35  1  0.44184900  0.63160600  0.00000000  1
  O  O36  1  0.63160600  0.55815100  0.00000000  1
  O  O37  1  0.36839400  0.44184900  0.00000000  1
  O  O38  1  0.34229800  0.99931600  0.00000000  1
  O  O39  1  0.65770200  0.00068400  0.00000000  1
  O  O40  1  0.99931600  0.65770200  0.00000000  1
  O  O41  1  0.84229800  0.50068400  0.00000000  1
  O  O42  1  0.00068400  0.34229800  0.00000000  1
  O  O43  1  0.15770200  0.49931600  0.00000000  1
  O  O44  1  0.49931600  0.84229800  0.00000000  1
  O  O45  1  0.50068400  0.15770200  0.00000000  1
