# generated using pymatgen
data_Ti3(BiO3)4
_symmetry_space_group_name_H-M   'P 1'
_cell_length_a   16.93558594
_cell_length_b   16.93558594
_cell_length_c   5.47042500
_cell_angle_alpha   90.00000000
_cell_angle_beta   90.00000000
_cell_angle_gamma   161.18667995
_symmetry_Int_Tables_number   1
_chemical_formula_structural   Ti3(BiO3)4
_chemical_formula_sum   'Ti6 Bi8 O24'
_cell_volume   505.97850548
_cell_formula_units_Z   2
loop_
 _symmetry_equiv_pos_site_id
 _symmetry_equiv_pos_as_xyz
  1  'x, y, z'
loop_
 _atom_site_type_symbol
 _atom_site_label
 _atom_site_symmetry_multiplicity
 _atom_site_fract_x
 _atom_site_fract_y
 _atom_site_fract_z
 _atom_site_occupancy
  Ti  Ti0  1  0.82709700  0.08151400  0.49663700  1
  Ti  Ti1  1  0.08151400  0.82709700  0.50336300  1
  Ti  Ti2  1  0.32709700  0.58151400  0.00336300  1
  Ti  Ti3  1  0.58151400  0.32709700  0.99663700  1
  Ti  Ti4  1  0.96111500  0.96111500  0.50000000  1
  Ti  Ti5  1  0.46111500  0.46111500  0.00000000  1
  Bi  Bi6  1  0.81982000  0.24280500  0.97480700  1
  Bi  Bi7  1  0.24280500  0.81982000  0.02519300  1
  Bi  Bi8  1  0.31982000  0.74280500  0.52519300  1
  Bi  Bi9  1  0.74280500  0.31982000  0.47480700  1
  Bi  Bi10  1  0.93717800  0.06911900  0.99695200  1
  Bi  Bi11  1  0.06911900  0.93717800  0.00304800  1
  Bi  Bi12  1  0.43717800  0.56911900  0.50304800  1
  Bi  Bi13  1  0.56911900  0.43717800  0.49695200  1
  O  O14  1  0.51700200  0.76480800  0.29656300  1
  O  O15  1  0.76480800  0.51700200  0.70343700  1
  O  O16  1  0.01700200  0.26480800  0.20343700  1
  O  O17  1  0.26480800  0.01700200  0.79656300  1
  O  O18  1  0.59789700  0.81619100  0.77672500  1
  O  O19  1  0.81619100  0.59789700  0.22327500  1
  O  O20  1  0.09789700  0.31619100  0.72327500  1
  O  O21  1  0.31619100  0.09789700  0.27672500  1
  O  O22  1  0.76555200  0.12414800  0.56421600  1
  O  O23  1  0.12414800  0.76555200  0.43578400  1
  O  O24  1  0.26555200  0.62414800  0.93578400  1
  O  O25  1  0.62414800  0.26555200  0.06421600  1
  O  O26  1  0.85064700  0.96650500  0.42349400  1
  O  O27  1  0.96650500  0.85064700  0.57650600  1
  O  O28  1  0.18533400  0.16492700  0.24709900  1
  O  O29  1  0.16492700  0.18533400  0.75290100  1
  O  O30  1  0.68533400  0.66492700  0.25290100  1
  O  O31  1  0.66492700  0.68533400  0.74709900  1
  O  O32  1  0.00806700  0.50647400  0.24112600  1
  O  O33  1  0.50647400  0.00806700  0.75887400  1
  O  O34  1  0.50806700  0.00647400  0.25887400  1
  O  O35  1  0.00647400  0.50806700  0.74112600  1
  O  O36  1  0.46650500  0.35064700  0.92349400  1
  O  O37  1  0.35064700  0.46650500  0.07650600  1
