# generated using pymatgen
data_DyCoNi
_symmetry_space_group_name_H-M   'P 1'
_cell_length_a   5.03403672
_cell_length_b   5.03403672
_cell_length_c   5.03403672
_cell_angle_alpha   120.56139824
_cell_angle_beta   120.20608098
_cell_angle_gamma   89.33689733
_symmetry_Int_Tables_number   1
_chemical_formula_structural   DyCoNi
_chemical_formula_sum   'Dy2 Co2 Ni2'
_cell_volume   89.67491581
_cell_formula_units_Z   2
loop_
 _symmetry_equiv_pos_site_id
 _symmetry_equiv_pos_as_xyz
  1  'x, y, z'
loop_
 _atom_site_type_symbol
 _atom_site_label
 _atom_site_symmetry_multiplicity
 _atom_site_fract_x
 _atom_site_fract_y
 _atom_site_fract_z
 _atom_site_occupancy
  Dy  Dy0  1  0.37254000  0.12254000  0.25000000  1
  Dy  Dy1  1  0.62746000  0.87746000  0.75000000  1
  Co  Co2  1  0.00000000  0.00000000  0.50000000  1
  Co  Co3  1  0.00000000  0.50000000  0.00000000  1
  Ni  Ni4  1  0.00000000  0.50000000  0.50000000  1
  Ni  Ni5  1  0.50000000  0.50000000  0.00000000  1
