# generated using pymatgen
data_Pb3O4
_symmetry_space_group_name_H-M   'P 1'
_cell_length_a   3.49728200
_cell_length_b   6.90937400
_cell_length_c   10.12499700
_cell_angle_alpha   90.00000000
_cell_angle_beta   90.00000000
_cell_angle_gamma   90.00000000
_symmetry_Int_Tables_number   1
_chemical_formula_structural   Pb3O4
_chemical_formula_sum   'Pb6 O8'
_cell_volume   244.66072439
_cell_formula_units_Z   2
loop_
 _symmetry_equiv_pos_site_id
 _symmetry_equiv_pos_as_xyz
  1  'x, y, z'
loop_
 _atom_site_type_symbol
 _atom_site_label
 _atom_site_symmetry_multiplicity
 _atom_site_fract_x
 _atom_site_fract_y
 _atom_site_fract_z
 _atom_site_occupancy
  Pb  Pb0  1  0.00000000  0.48222600  0.30701700  1
  Pb  Pb1  1  0.00000000  0.01777400  0.80701700  1
  Pb  Pb2  1  0.50000000  0.50000000  0.00000000  1
  Pb  Pb3  1  0.00000000  0.98222600  0.19298300  1
  Pb  Pb4  1  0.00000000  0.51777400  0.69298300  1
  Pb  Pb5  1  0.50000000  0.00000000  0.50000000  1
  O  O6  1  0.00000000  0.33387200  0.08808500  1
  O  O7  1  0.00000000  0.66612800  0.91191500  1
  O  O8  1  0.00000000  0.16612800  0.58808500  1
  O  O9  1  0.00000000  0.83387200  0.41191500  1
  O  O10  1  0.50000000  0.35060500  0.80850600  1
  O  O11  1  0.50000000  0.14939500  0.30850600  1
  O  O12  1  0.50000000  0.85060500  0.69149400  1
  O  O13  1  0.50000000  0.64939500  0.19149400  1
