# generated using pymatgen
data_BaC10
_symmetry_space_group_name_H-M   'P 1'
_cell_length_a   9.79314863
_cell_length_b   9.79314863
_cell_length_c   9.79314863
_cell_angle_alpha   109.47122063
_cell_angle_beta   109.47122063
_cell_angle_gamma   109.47122063
_symmetry_Int_Tables_number   1
_chemical_formula_structural   BaC10
_chemical_formula_sum   'Ba6 C60'
_cell_volume   723.01140363
_cell_formula_units_Z   6
loop_
 _symmetry_equiv_pos_site_id
 _symmetry_equiv_pos_as_xyz
  1  'x, y, z'
loop_
 _atom_site_type_symbol
 _atom_site_label
 _atom_site_symmetry_multiplicity
 _atom_site_fract_x
 _atom_site_fract_y
 _atom_site_fract_z
 _atom_site_occupancy
  Ba  Ba0  1  0.27754900  0.50000000  0.77754900  1
  Ba  Ba1  1  0.50000000  0.77754900  0.27754900  1
  Ba  Ba2  1  0.22245100  0.72245100  0.50000000  1
  Ba  Ba3  1  0.50000000  0.22245100  0.72245100  1
  Ba  Ba4  1  0.77754900  0.27754900  0.50000000  1
  Ba  Ba5  1  0.72245100  0.50000000  0.22245100  1
  C  C6  1  0.37558500  0.06426200  0.31132300  1
  C  C7  1  0.93573800  0.31132300  0.24706100  1
  C  C8  1  0.68867700  0.62441500  0.93573800  1
  C  C9  1  0.06426200  0.68867700  0.75293900  1
  C  C10  1  0.31132300  0.24706100  0.93573800  1
  C  C11  1  0.93573800  0.68867700  0.62441500  1
  C  C12  1  0.68867700  0.75293900  0.06426200  1
  C  C13  1  0.31132300  0.37558500  0.06426200  1
  C  C14  1  0.06426200  0.31132300  0.37558500  1
  C  C15  1  0.24706100  0.93573800  0.31132300  1
  C  C16  1  0.62441500  0.93573800  0.68867700  1
  C  C17  1  0.75293900  0.06426200  0.68867700  1
  C  C18  1  0.39984000  0.23189200  0.37559100  1
  C  C19  1  0.76810800  0.16794800  0.14369900  1
  C  C20  1  0.83205200  0.60016000  0.97575100  1
  C  C21  1  0.02424900  0.62440900  0.85630100  1
  C  C22  1  0.16794800  0.14369900  0.76810800  1
  C  C23  1  0.97575100  0.83205200  0.60016000  1
  C  C24  1  0.62440900  0.85630100  0.02424900  1
  C  C25  1  0.37559100  0.39984000  0.23189200  1
  C  C26  1  0.23189200  0.37559100  0.39984000  1
  C  C27  1  0.14369900  0.76810800  0.16794800  1
  C  C28  1  0.60016000  0.97575100  0.83205200  1
  C  C29  1  0.85630100  0.02424900  0.62440900  1
  C  C30  1  0.60016000  0.76810800  0.62440900  1
  C  C31  1  0.23189200  0.83205200  0.85630100  1
  C  C32  1  0.16794800  0.39984000  0.02424900  1
  C  C33  1  0.97575100  0.37559100  0.14369900  1
  C  C34  1  0.83205200  0.85630100  0.23189200  1
  C  C35  1  0.02424900  0.16794800  0.39984000  1
  C  C36  1  0.37559100  0.14369900  0.97575100  1
  C  C37  1  0.62440900  0.60016000  0.76810800  1
  C  C38  1  0.76810800  0.62440900  0.60016000  1
  C  C39  1  0.85630100  0.23189200  0.83205200  1
  C  C40  1  0.39984000  0.02424900  0.16794800  1
  C  C41  1  0.14369900  0.97575100  0.37559100  1
  C  C42  1  0.29386200  0.27019300  0.43676900  1
  C  C43  1  0.72980700  0.02366900  0.16657600  1
  C  C44  1  0.97633100  0.70613800  0.14290700  1
  C  C45  1  0.85709300  0.56323100  0.83342400  1
  C  C46  1  0.02366900  0.16657600  0.72980700  1
  C  C47  1  0.14290700  0.97633100  0.70613800  1
  C  C48  1  0.56323100  0.83342400  0.85709300  1
  C  C49  1  0.43676900  0.29386200  0.27019300  1
  C  C50  1  0.27019300  0.43676900  0.29386200  1
  C  C51  1  0.16657600  0.72980700  0.02366900  1
  C  C52  1  0.70613800  0.14290700  0.97633100  1
  C  C53  1  0.83342400  0.85709300  0.56323100  1
  C  C54  1  0.70613800  0.72980700  0.56323100  1
  C  C55  1  0.27019300  0.97633100  0.83342400  1
  C  C56  1  0.02366900  0.29386200  0.85709300  1
  C  C57  1  0.14290700  0.43676900  0.16657600  1
  C  C58  1  0.97633100  0.83342400  0.27019300  1
  C  C59  1  0.85709300  0.02366900  0.29386200  1
  C  C60  1  0.43676900  0.16657600  0.14290700  1
  C  C61  1  0.56323100  0.70613800  0.72980700  1
  C  C62  1  0.72980700  0.56323100  0.70613800  1
  C  C63  1  0.83342400  0.27019300  0.97633100  1
  C  C64  1  0.29386200  0.85709300  0.02366900  1
  C  C65  1  0.16657600  0.14290700  0.43676900  1
