# generated using pymatgen
data_Nb4N5
_symmetry_space_group_name_H-M   'P 1'
_cell_length_a   5.35971887
_cell_length_b   5.35971887
_cell_length_c   5.35971887
_cell_angle_alpha   99.35764581
_cell_angle_beta   99.35764581
_cell_angle_gamma   132.43914523
_symmetry_Int_Tables_number   1
_chemical_formula_structural   Nb4N5
_chemical_formula_sum   'Nb4 N5'
_cell_volume   103.97920593
_cell_formula_units_Z   1
loop_
 _symmetry_equiv_pos_site_id
 _symmetry_equiv_pos_as_xyz
  1  'x, y, z'
loop_
 _atom_site_type_symbol
 _atom_site_label
 _atom_site_symmetry_multiplicity
 _atom_site_fract_x
 _atom_site_fract_y
 _atom_site_fract_z
 _atom_site_occupancy
  Nb  Nb0  1  0.21569900  0.39509600  0.61079400  1
  Nb  Nb1  1  0.39509600  0.78430100  0.17939700  1
  Nb  Nb2  1  0.60490400  0.21569900  0.82060300  1
  Nb  Nb3  1  0.78430100  0.60490400  0.38920600  1
  N  N4  1  0.50000000  0.50000000  0.00000000  1
  N  N5  1  0.30611100  0.09228400  0.39839500  1
  N  N6  1  0.09228400  0.69388900  0.78617200  1
  N  N7  1  0.90771600  0.30611100  0.21382800  1
  N  N8  1  0.69388900  0.90771600  0.60160500  1
