# generated using pymatgen
data_NaSr2Nb5O15
_symmetry_space_group_name_H-M   'P 1'
_cell_length_a   12.62277100
_cell_length_b   12.62277100
_cell_length_c   4.07861800
_cell_angle_alpha   90.00000000
_cell_angle_beta   90.00000000
_cell_angle_gamma   90.05348503
_symmetry_Int_Tables_number   1
_chemical_formula_structural   NaSr2Nb5O15
_chemical_formula_sum   'Na2 Sr4 Nb10 O30'
_cell_volume   649.86365559
_cell_formula_units_Z   2
loop_
 _symmetry_equiv_pos_site_id
 _symmetry_equiv_pos_as_xyz
  1  'x, y, z'
loop_
 _atom_site_type_symbol
 _atom_site_label
 _atom_site_symmetry_multiplicity
 _atom_site_fract_x
 _atom_site_fract_y
 _atom_site_fract_z
 _atom_site_occupancy
  Na  Na0  1  0.32923300  0.32923300  0.99217200  1
  Na  Na1  1  0.67076700  0.67076700  0.99217200  1
  Sr  Sr2  1  0.82731600  0.17268400  0.00154000  1
  Sr  Sr3  1  0.17268400  0.82731600  0.00154000  1
  Sr  Sr4  1  0.50000000  0.00000000  0.04543400  1
  Sr  Sr5  1  0.00000000  0.50000000  0.04543400  1
  Nb  Nb6  1  0.42352600  0.78786200  0.53845800  1
  Nb  Nb7  1  0.57647400  0.21213900  0.53845800  1
  Nb  Nb8  1  0.92157600  0.71060500  0.53833500  1
  Nb  Nb9  1  0.07842400  0.28939500  0.53833500  1
  Nb  Nb10  1  0.71060500  0.92157600  0.53833500  1
  Nb  Nb11  1  0.28939500  0.07842400  0.53833500  1
  Nb  Nb12  1  0.78786100  0.42352600  0.53845800  1
  Nb  Nb13  1  0.21213900  0.57647400  0.53845800  1
  Nb  Nb14  1  0.50000000  0.50000000  0.52274700  1
  Nb  Nb15  1  0.00000000  0.00000000  0.52552600  1
  O  O16  1  0.21908700  0.21908700  0.59214000  1
  O  O17  1  0.78091300  0.78091300  0.59214000  1
  O  O18  1  0.72674400  0.27325600  0.58158800  1
  O  O19  1  0.27325600  0.72674400  0.58158800  1
  O  O20  1  0.41529000  0.79963400  0.08082000  1
  O  O21  1  0.58471000  0.20036600  0.08082000  1
  O  O22  1  0.92269300  0.70108700  0.08245400  1
  O  O23  1  0.07730700  0.29891300  0.08245400  1
  O  O24  1  0.70108700  0.92269300  0.08245400  1
  O  O25  1  0.29891300  0.07730700  0.08245400  1
  O  O26  1  0.79963400  0.41529000  0.08082000  1
  O  O27  1  0.20036600  0.58471000  0.08082000  1
  O  O28  1  0.15747200  0.99204800  0.58881800  1
  O  O29  1  0.84252800  0.00795200  0.58881800  1
  O  O30  1  0.65794100  0.50199400  0.58673500  1
  O  O31  1  0.34205900  0.49800600  0.58673500  1
  O  O32  1  0.50199400  0.65794100  0.58673500  1
  O  O33  1  0.49800600  0.34205900  0.58673500  1
  O  O34  1  0.99204800  0.15747200  0.58881800  1
  O  O35  1  0.00795200  0.84252800  0.58881800  1
  O  O36  1  0.36068400  0.93555600  0.59385000  1
  O  O37  1  0.63931600  0.06444400  0.59385000  1
  O  O38  1  0.86580700  0.56216100  0.58583600  1
  O  O39  1  0.13419300  0.43783900  0.58583600  1
  O  O40  1  0.56216100  0.86580700  0.58583600  1
  O  O41  1  0.43783900  0.13419300  0.58583600  1
  O  O42  1  0.93555600  0.36068400  0.59385000  1
  O  O43  1  0.06444400  0.63931600  0.59385000  1
  O  O44  1  0.50000000  0.50000000  0.07626400  1
  O  O45  1  0.00000000  0.00000000  0.07445100  1
