# generated using pymatgen
data_Gd3Fe5O12
_symmetry_space_group_name_H-M   'P 1'
_cell_length_a   10.93514340
_cell_length_b   10.93514411
_cell_length_c   10.93514300
_cell_angle_alpha   109.47122044
_cell_angle_beta   109.47122174
_cell_angle_gamma   109.47121822
_symmetry_Int_Tables_number   1
_chemical_formula_structural   Gd3Fe5O12
_chemical_formula_sum   'Gd12 Fe20 O48'
_cell_volume   1006.58760285
_cell_formula_units_Z   4
loop_
 _symmetry_equiv_pos_site_id
 _symmetry_equiv_pos_as_xyz
  1  'x, y, z'
loop_
 _atom_site_type_symbol
 _atom_site_label
 _atom_site_symmetry_multiplicity
 _atom_site_fract_x
 _atom_site_fract_y
 _atom_site_fract_z
 _atom_site_occupancy
  Gd  Gd0  1  0.37500000  0.75000000  0.12500000  1
  Gd  Gd1  1  0.87500000  0.62500000  0.25000000  1
  Gd  Gd2  1  0.37500000  0.12500000  0.25000000  1
  Gd  Gd3  1  0.62500000  0.25000000  0.87500000  1
  Gd  Gd4  1  0.12500000  0.37500000  0.75000000  1
  Gd  Gd5  1  0.25000000  0.87500000  0.62500000  1
  Gd  Gd6  1  0.87500000  0.75000000  0.62500000  1
  Gd  Gd7  1  0.12500000  0.25000000  0.37500000  1
  Gd  Gd8  1  0.25000000  0.37500000  0.12500000  1
  Gd  Gd9  1  0.62500000  0.87500000  0.75000000  1
  Gd  Gd10  1  0.75000000  0.12500000  0.37500000  1
  Gd  Gd11  1  0.75000000  0.62500000  0.87500000  1
  Fe  Fe12  1  0.00000000  0.00000000  0.50000000  1
  Fe  Fe13  1  0.12500000  0.75000000  0.87500000  1
  Fe  Fe14  1  0.87500000  0.12500000  0.75000000  1
  Fe  Fe15  1  0.50000000  0.00000000  0.50000000  1
  Fe  Fe16  1  0.50000000  0.00000000  0.00000000  1
  Fe  Fe17  1  0.62500000  0.75000000  0.37500000  1
  Fe  Fe18  1  0.00000000  0.00000000  0.00000000  1
  Fe  Fe19  1  0.00000000  0.50000000  0.00000000  1
  Fe  Fe20  1  0.25000000  0.62500000  0.37500000  1
  Fe  Fe21  1  0.00000000  0.50000000  0.50000000  1
  Fe  Fe22  1  0.25000000  0.12500000  0.87500000  1
  Fe  Fe23  1  0.37500000  0.25000000  0.62500000  1
  Fe  Fe24  1  0.87500000  0.25000000  0.12500000  1
  Fe  Fe25  1  0.75000000  0.37500000  0.62500000  1
  Fe  Fe26  1  0.37500000  0.62500000  0.75000000  1
  Fe  Fe27  1  0.50000000  0.50000000  0.50000000  1
  Fe  Fe28  1  0.62500000  0.37500000  0.25000000  1
  Fe  Fe29  1  0.75000000  0.87500000  0.12500000  1
  Fe  Fe30  1  0.50000000  0.50000000  0.00000000  1
  Fe  Fe31  1  0.12500000  0.87500000  0.25000000  1
  O  O32  1  0.12510500  0.59572700  0.91662400  1
  O  O33  1  0.52937800  0.62510500  0.70848100  1
  O  O34  1  0.87489500  0.97062200  0.79151900  1
  O  O35  1  0.90427300  0.37489500  0.58337600  1
  O  O36  1  0.12510500  0.02937800  0.20848100  1
  O  O37  1  0.29151900  0.32089600  0.91662400  1
  O  O38  1  0.08337600  0.70848100  0.67910400  1
  O  O39  1  0.82089600  0.79151900  0.41662400  1
  O  O40  1  0.52937800  0.40427300  0.82089600  1
  O  O41  1  0.17910400  0.47062200  0.59572700  1
  O  O42  1  0.09572700  0.97062200  0.67910400  1
  O  O43  1  0.17910400  0.20848100  0.58337600  1
  O  O44  1  0.41662400  0.09572700  0.62510500  1
  O  O45  1  0.41662400  0.82089600  0.79151900  1
  O  O46  1  0.02937800  0.20848100  0.12510500  1
  O  O47  1  0.62510500  0.41662400  0.09572700  1
  O  O48  1  0.79151900  0.41662400  0.82089600  1
  O  O49  1  0.20848100  0.12510500  0.02937800  1
  O  O50  1  0.97062200  0.79151900  0.87489500  1
  O  O51  1  0.59572700  0.17910400  0.47062200  1
  O  O52  1  0.20848100  0.58337600  0.17910400  1
  O  O53  1  0.02937800  0.32089600  0.90427300  1
  O  O54  1  0.67910400  0.09572700  0.97062200  1
  O  O55  1  0.58337600  0.17910400  0.20848100  1
  O  O56  1  0.37489500  0.29151900  0.47062200  1
  O  O57  1  0.08337600  0.87489500  0.40427300  1
  O  O58  1  0.58337600  0.90427300  0.37489500  1
  O  O59  1  0.91662400  0.12510500  0.59572700  1
  O  O60  1  0.40427300  0.08337600  0.87489500  1
  O  O61  1  0.82089600  0.52937800  0.40427300  1
  O  O62  1  0.62510500  0.70848100  0.52937800  1
  O  O63  1  0.90427300  0.02937800  0.32089600  1
  O  O64  1  0.29151900  0.47062200  0.37489500  1
  O  O65  1  0.09572700  0.62510500  0.41662400  1
  O  O66  1  0.37489500  0.58337600  0.90427300  1
  O  O67  1  0.32089600  0.91662400  0.29151900  1
  O  O68  1  0.70848100  0.67910400  0.08337600  1
  O  O69  1  0.97062200  0.67910400  0.09572700  1
  O  O70  1  0.67910400  0.08337600  0.70848100  1
  O  O71  1  0.47062200  0.59572700  0.17910400  1
  O  O72  1  0.59572700  0.91662400  0.12510500  1
  O  O73  1  0.79151900  0.87489500  0.97062200  1
  O  O74  1  0.40427300  0.82089600  0.52937800  1
  O  O75  1  0.32089600  0.90427300  0.02937800  1
  O  O76  1  0.91662400  0.29151900  0.32089600  1
  O  O77  1  0.47062200  0.37489500  0.29151900  1
  O  O78  1  0.87489500  0.40427300  0.08337600  1
  O  O79  1  0.70848100  0.52937800  0.62510500  1
