# generated using pymatgen
data_Sr2Ti5(Bi2O9)2
_symmetry_space_group_name_H-M   'P 1'
_cell_length_a   5.50753500
_cell_length_b   5.53767627
_cell_length_c   24.86155876
_cell_angle_alpha   96.30260549
_cell_angle_beta   90.08148814
_cell_angle_gamma   90.31795075
_symmetry_Int_Tables_number   1
_chemical_formula_structural   Sr2Ti5(Bi2O9)2
_chemical_formula_sum   'Sr4 Ti10 Bi8 O36'
_cell_volume   753.65525770
_cell_formula_units_Z   2
loop_
 _symmetry_equiv_pos_site_id
 _symmetry_equiv_pos_as_xyz
  1  'x, y, z'
loop_
 _atom_site_type_symbol
 _atom_site_label
 _atom_site_symmetry_multiplicity
 _atom_site_fract_x
 _atom_site_fract_y
 _atom_site_fract_z
 _atom_site_occupancy
  Sr  Sr0  1  0.50212100  0.38462000  0.74872300  1
  Sr  Sr1  1  0.50450100  0.55228100  0.08097700  1
  Sr  Sr2  1  0.00810300  0.96749300  0.91872700  1
  Sr  Sr3  1  0.99507900  0.05495700  0.08180100  1
  Ti  Ti4  1  0.49858100  0.09039000  0.16182500  1
  Ti  Ti5  1  0.50675800  0.92544200  0.83332300  1
  Ti  Ti6  1  0.00346200  0.59058500  0.16133000  1
  Ti  Ti7  1  0.00950300  0.43949100  0.83487400  1
  Ti  Ti8  1  0.50041800  0.01216900  0.00192000  1
  Ti  Ti9  1  0.00172500  0.51612800  0.00077200  1
  Ti  Ti10  1  0.49733300  0.17605500  0.33700500  1
  Ti  Ti11  1  0.50791600  0.85079900  0.66236000  1
  Ti  Ti12  1  0.00449600  0.67555100  0.33677800  1
  Ti  Ti13  1  0.99722600  0.33401500  0.66232000  1
  Bi  Bi14  1  0.53010800  0.27968000  0.55139400  1
  Bi  Bi15  1  0.46982800  0.72991000  0.44879300  1
  Bi  Bi16  1  0.97175800  0.77755300  0.55151500  1
  Bi  Bi17  1  0.02845600  0.22775000  0.44886500  1
  Bi  Bi18  1  0.51078900  0.58228400  0.25352600  1
  Bi  Bi19  1  0.01706800  0.84582600  0.73608500  1
  Bi  Bi20  1  0.98998700  0.08189400  0.25361900  1
  Bi  Bi21  1  0.52047100  0.42478500  0.91309400  1
  O  O22  1  0.20764000  0.91775900  0.17038000  1
  O  O23  1  0.78845800  0.74612300  0.83264200  1
  O  O24  1  0.29069900  0.41791500  0.17029500  1
  O  O25  1  0.70248600  0.25127000  0.83527700  1
  O  O26  1  0.45603100  0.08155500  0.08172600  1
  O  O27  1  0.54171600  0.02264300  0.92091600  1
  O  O28  1  0.04054300  0.58044700  0.08191100  1
  O  O29  1  0.93534900  0.49503200  0.92050100  1
  O  O30  1  0.25495300  0.92656200  0.31395200  1
  O  O31  1  0.74652000  0.60963300  0.68275900  1
  O  O32  1  0.24443900  0.42657300  0.31418800  1
  O  O33  1  0.75742700  0.10217400  0.68329500  1
  O  O34  1  0.24283000  0.78715700  0.99462200  1
  O  O35  1  0.74744400  0.79121200  0.00800500  1
  O  O36  1  0.24911400  0.28651300  0.99378500  1
  O  O37  1  0.74839800  0.29050000  0.00837700  1
  O  O38  1  0.55805600  0.17517500  0.24134800  1
  O  O39  1  0.44676400  0.89753600  0.75990500  1
  O  O40  1  0.94004200  0.67512500  0.24117300  1
  O  O41  1  0.03412600  0.43420600  0.76008300  1
  O  O42  1  0.28491000  0.67710500  0.85000300  1
  O  O43  1  0.71622400  0.84025800  0.15392200  1
  O  O44  1  0.22171200  0.18960600  0.84699800  1
  O  O45  1  0.78101200  0.33977400  0.15423100  1
  O  O46  1  0.44248800  0.21573900  0.40779400  1
  O  O47  1  0.55367400  0.81171600  0.59117700  1
  O  O48  1  0.05854000  0.71651300  0.40767300  1
  O  O49  1  0.94517500  0.31294400  0.59121200  1
  O  O50  1  0.23482900  0.62047800  0.67228400  1
  O  O51  1  0.77122400  0.96430800  0.32876300  1
  O  O52  1  0.25390000  0.11044200  0.67168800  1
  O  O53  1  0.72828000  0.46408600  0.32872400  1
  O  O54  1  0.24878700  0.51006400  0.50204200  1
  O  O55  1  0.75109800  0.00840800  0.49864800  1
  O  O56  1  0.25061000  0.00977300  0.50193700  1
  O  O57  1  0.74881800  0.50801700  0.49813800  1
