# generated using pymatgen
data_Nd2NiGe3
_symmetry_space_group_name_H-M   'P 1'
_cell_length_a   4.25083020
_cell_length_b   4.25083020
_cell_length_c   8.26431000
_cell_angle_alpha   90.00000000
_cell_angle_beta   90.00000000
_cell_angle_gamma   120.00000314
_symmetry_Int_Tables_number   1
_chemical_formula_structural   Nd2NiGe3
_chemical_formula_sum   'Nd2 Ni1 Ge3'
_cell_volume   129.32566865
_cell_formula_units_Z   1
loop_
 _symmetry_equiv_pos_site_id
 _symmetry_equiv_pos_as_xyz
  1  'x, y, z'
loop_
 _atom_site_type_symbol
 _atom_site_label
 _atom_site_symmetry_multiplicity
 _atom_site_fract_x
 _atom_site_fract_y
 _atom_site_fract_z
 _atom_site_occupancy
  Nd  Nd0  1  0.33333300  0.66666700  0.23252000  1
  Nd  Nd1  1  0.33333300  0.66666700  0.76748000  1
  Ni  Ni2  1  0.66666700  0.33333300  0.00000000  1
  Ge  Ge3  1  0.66666700  0.33333300  0.50000000  1
  Ge  Ge4  1  0.00000000  0.00000000  0.00000000  1
  Ge  Ge5  1  0.00000000  0.00000000  0.50000000  1
