# generated using pymatgen
data_Ho3Al2
_symmetry_space_group_name_H-M   'P 1'
_cell_length_a   8.20221600
_cell_length_b   8.20221600
_cell_length_c   7.57874200
_cell_angle_alpha   90.00000000
_cell_angle_beta   90.00000000
_cell_angle_gamma   90.00000000
_symmetry_Int_Tables_number   1
_chemical_formula_structural   Ho3Al2
_chemical_formula_sum   'Ho12 Al8'
_cell_volume   509.87007897
_cell_formula_units_Z   4
loop_
 _symmetry_equiv_pos_site_id
 _symmetry_equiv_pos_as_xyz
  1  'x, y, z'
loop_
 _atom_site_type_symbol
 _atom_site_label
 _atom_site_symmetry_multiplicity
 _atom_site_fract_x
 _atom_site_fract_y
 _atom_site_fract_z
 _atom_site_occupancy
  Ho  Ho0  1  0.00000000  0.50000000  0.25000000  1
  Ho  Ho1  1  0.50000000  0.00000000  0.75000000  1
  Ho  Ho2  1  0.50000000  0.00000000  0.25000000  1
  Ho  Ho3  1  0.00000000  0.50000000  0.75000000  1
  Ho  Ho4  1  0.14996500  0.85003500  0.50000000  1
  Ho  Ho5  1  0.85003500  0.14996500  0.50000000  1
  Ho  Ho6  1  0.35003500  0.35003500  0.00000000  1
  Ho  Ho7  1  0.64996500  0.64996500  0.00000000  1
  Ho  Ho8  1  0.20120400  0.79879600  0.00000000  1
  Ho  Ho9  1  0.79879600  0.20120400  0.00000000  1
  Ho  Ho10  1  0.29879600  0.29879600  0.50000000  1
  Ho  Ho11  1  0.70120400  0.70120400  0.50000000  1
  Al  Al12  1  0.38057100  0.61942900  0.30382300  1
  Al  Al13  1  0.61942900  0.38057100  0.30382300  1
  Al  Al14  1  0.11942900  0.11942900  0.80382300  1
  Al  Al15  1  0.88057100  0.88057100  0.80382300  1
  Al  Al16  1  0.38057100  0.61942900  0.69617700  1
  Al  Al17  1  0.61942900  0.38057100  0.69617700  1
  Al  Al18  1  0.11942900  0.11942900  0.19617700  1
  Al  Al19  1  0.88057100  0.88057100  0.19617700  1
