# generated using pymatgen
data_Sr2TaAlO6
_symmetry_space_group_name_H-M   'P 1'
_cell_length_a   3.96565200
_cell_length_b   3.96565200
_cell_length_c   7.88860500
_cell_angle_alpha   90.00000000
_cell_angle_beta   90.00000000
_cell_angle_gamma   90.00000000
_symmetry_Int_Tables_number   1
_chemical_formula_structural   Sr2TaAlO6
_chemical_formula_sum   'Sr2 Ta1 Al1 O6'
_cell_volume   124.05932442
_cell_formula_units_Z   1
loop_
 _symmetry_equiv_pos_site_id
 _symmetry_equiv_pos_as_xyz
  1  'x, y, z'
loop_
 _atom_site_type_symbol
 _atom_site_label
 _atom_site_symmetry_multiplicity
 _atom_site_fract_x
 _atom_site_fract_y
 _atom_site_fract_z
 _atom_site_occupancy
  Sr  Sr0  1  0.00000000  0.00000000  0.71567400  1
  Sr  Sr1  1  0.00000000  0.00000000  0.28432600  1
  Ta  Ta2  1  0.50000000  0.50000000  0.00000000  1
  Al  Al3  1  0.50000000  0.50000000  0.50000000  1
  O  O4  1  0.50000000  0.00000000  0.00000000  1
  O  O5  1  0.50000000  0.00000000  0.50000000  1
  O  O6  1  0.00000000  0.50000000  0.00000000  1
  O  O7  1  0.00000000  0.50000000  0.50000000  1
  O  O8  1  0.50000000  0.50000000  0.74921000  1
  O  O9  1  0.50000000  0.50000000  0.25079000  1
