# generated using pymatgen
data_ZnSnAs2
_symmetry_space_group_name_H-M   'P 1'
_cell_length_a   7.27257114
_cell_length_b   7.27257114
_cell_length_c   7.27257119
_cell_angle_alpha   33.64292982
_cell_angle_beta   33.64292982
_cell_angle_gamma   33.64293939
_symmetry_Int_Tables_number   1
_chemical_formula_structural   ZnSnAs2
_chemical_formula_sum   'Zn1 Sn1 As2'
_cell_volume   105.17486268
_cell_formula_units_Z   1
loop_
 _symmetry_equiv_pos_site_id
 _symmetry_equiv_pos_as_xyz
  1  'x, y, z'
loop_
 _atom_site_type_symbol
 _atom_site_label
 _atom_site_symmetry_multiplicity
 _atom_site_fract_x
 _atom_site_fract_y
 _atom_site_fract_z
 _atom_site_occupancy
  Zn  Zn0  1  0.63488700  0.63488700  0.63488700  1
  Sn  Sn1  1  0.11695400  0.11695400  0.11695400  1
  As  As2  1  0.99038000  0.99038000  0.99038000  1
  As  As3  1  0.50778000  0.50778000  0.50778000  1
