# generated using pymatgen
data_SnO2
_symmetry_space_group_name_H-M   'P 1'
_cell_length_a   3.22456500
_cell_length_b   9.33467600
_cell_length_c   11.35355000
_cell_angle_alpha   90.00000000
_cell_angle_beta   90.00000000
_cell_angle_gamma   90.00000000
_symmetry_Int_Tables_number   1
_chemical_formula_structural   SnO2
_chemical_formula_sum   'Sn8 O16'
_cell_volume   341.74491496
_cell_formula_units_Z   8
loop_
 _symmetry_equiv_pos_site_id
 _symmetry_equiv_pos_as_xyz
  1  'x, y, z'
loop_
 _atom_site_type_symbol
 _atom_site_label
 _atom_site_symmetry_multiplicity
 _atom_site_fract_x
 _atom_site_fract_y
 _atom_site_fract_z
 _atom_site_occupancy
  Sn  Sn0  1  0.75000000  0.91263700  0.10269900  1
  Sn  Sn1  1  0.25000000  0.58736300  0.60269900  1
  Sn  Sn2  1  0.75000000  0.41263700  0.39730100  1
  Sn  Sn3  1  0.25000000  0.08736300  0.89730100  1
  Sn  Sn4  1  0.25000000  0.05242800  0.38302000  1
  Sn  Sn5  1  0.75000000  0.94757200  0.61698000  1
  Sn  Sn6  1  0.25000000  0.55242800  0.11698000  1
  Sn  Sn7  1  0.75000000  0.44757200  0.88302000  1
  O  O8  1  0.75000000  0.42099000  0.07124700  1
  O  O9  1  0.25000000  0.57901000  0.92875300  1
  O  O10  1  0.75000000  0.92099000  0.42875300  1
  O  O11  1  0.25000000  0.07901000  0.57124700  1
  O  O12  1  0.75000000  0.53355700  0.71388900  1
  O  O13  1  0.25000000  0.46644300  0.28611100  1
  O  O14  1  0.75000000  0.03355700  0.78611100  1
  O  O15  1  0.25000000  0.96644300  0.21388900  1
  O  O16  1  0.75000000  0.11568900  0.01306400  1
  O  O17  1  0.25000000  0.88431100  0.98693600  1
  O  O18  1  0.75000000  0.61568900  0.48693600  1
  O  O19  1  0.25000000  0.38431100  0.51306400  1
  O  O20  1  0.25000000  0.30455400  0.85219500  1
  O  O21  1  0.75000000  0.69544600  0.14780500  1
  O  O22  1  0.75000000  0.19544600  0.35219500  1
  O  O23  1  0.25000000  0.80455400  0.64780500  1
