# generated using pymatgen
data_LaCo5H4
_symmetry_space_group_name_H-M   'P 1'
_cell_length_a   5.19163145
_cell_length_b   5.19163145
_cell_length_c   4.11251700
_cell_angle_alpha   90.00000000
_cell_angle_beta   90.00000000
_cell_angle_gamma   117.18580238
_symmetry_Int_Tables_number   1
_chemical_formula_structural   LaCo5H4
_chemical_formula_sum   'La1 Co5 H4'
_cell_volume   98.59975277
_cell_formula_units_Z   1
loop_
 _symmetry_equiv_pos_site_id
 _symmetry_equiv_pos_as_xyz
  1  'x, y, z'
loop_
 _atom_site_type_symbol
 _atom_site_label
 _atom_site_symmetry_multiplicity
 _atom_site_fract_x
 _atom_site_fract_y
 _atom_site_fract_z
 _atom_site_occupancy
  La  La0  1  0.00000000  0.00000000  0.99147900  1
  Co  Co1  1  0.50000000  0.50000000  0.50829900  1
  Co  Co2  1  0.50000000  0.00000000  0.50525600  1
  Co  Co3  1  0.00000000  0.50000000  0.50525600  1
  Co  Co4  1  0.63551600  0.36448400  0.01235800  1
  Co  Co5  1  0.36448400  0.63551600  0.01235800  1
  H  H6  1  0.50000000  0.00000000  0.92970900  1
  H  H7  1  0.00000000  0.50000000  0.92970900  1
  H  H8  1  0.85340500  0.14659500  0.48723800  1
  H  H9  1  0.14659500  0.85340500  0.48723800  1
