# generated using pymatgen
data_LaFeAsO
_symmetry_space_group_name_H-M   'P 1'
_cell_length_a   5.81271049
_cell_length_b   5.87984532
_cell_length_c   10.06860207
_cell_angle_alpha   73.02418969
_cell_angle_beta   73.22561390
_cell_angle_gamma   89.99805782
_symmetry_Int_Tables_number   1
_chemical_formula_structural   LaFeAsO
_chemical_formula_sum   'La4 Fe4 As4 O4'
_cell_volume   313.78820488
_cell_formula_units_Z   4
loop_
 _symmetry_equiv_pos_site_id
 _symmetry_equiv_pos_as_xyz
  1  'x, y, z'
loop_
 _atom_site_type_symbol
 _atom_site_label
 _atom_site_symmetry_multiplicity
 _atom_site_fract_x
 _atom_site_fract_y
 _atom_site_fract_z
 _atom_site_occupancy
  La  La0  1  0.06522100  0.31537400  0.86922600  1
  La  La1  1  0.56522900  0.81538600  0.86920100  1
  La  La2  1  0.43442800  0.18458900  0.13080500  1
  La  La3  1  0.93444500  0.68460600  0.13078200  1
  Fe  Fe4  1  0.98480800  0.75006800  0.49997000  1
  Fe  Fe5  1  0.48469700  0.74997700  0.50003200  1
  Fe  Fe6  1  0.51572200  0.24999500  0.50001600  1
  Fe  Fe7  1  0.01567000  0.24998300  0.49999100  1
  As  As8  1  0.33529000  0.58521800  0.32933200  1
  As  As9  1  0.83525600  0.08523900  0.32929900  1
  As  As10  1  0.16477400  0.91480100  0.67068800  1
  As  As11  1  0.66481100  0.41477600  0.67065800  1
  O  O12  1  0.24993200  0.99937800  0.99999000  1
  O  O13  1  0.74990600  0.50062700  0.00001500  1
  O  O14  1  0.74990500  0.00062900  0.99997800  1
  O  O15  1  0.24990500  0.49935400  0.00001800  1
