# generated using pymatgen
data_Er2Fe14Si3
_symmetry_space_group_name_H-M   'P 1'
_cell_length_a   8.30553449
_cell_length_b   8.30553449
_cell_length_c   8.18005500
_cell_angle_alpha   90.00000000
_cell_angle_beta   90.00000000
_cell_angle_gamma   120.00000389
_symmetry_Int_Tables_number   1
_chemical_formula_structural   Er2Fe14Si3
_chemical_formula_sum   'Er4 Fe28 Si6'
_cell_volume   488.67712519
_cell_formula_units_Z   2
loop_
 _symmetry_equiv_pos_site_id
 _symmetry_equiv_pos_as_xyz
  1  'x, y, z'
loop_
 _atom_site_type_symbol
 _atom_site_label
 _atom_site_symmetry_multiplicity
 _atom_site_fract_x
 _atom_site_fract_y
 _atom_site_fract_z
 _atom_site_occupancy
  Er  Er0  1  0.00000000  0.00000000  0.25000000  1
  Er  Er1  1  0.00000000  0.00000000  0.75000000  1
  Er  Er2  1  0.33333300  0.66666700  0.75000000  1
  Er  Er3  1  0.66666700  0.33333300  0.25000000  1
  Fe  Fe4  1  0.33333300  0.66666700  0.39018100  1
  Fe  Fe5  1  0.66666700  0.33333300  0.60981900  1
  Fe  Fe6  1  0.66666700  0.33333300  0.89018100  1
  Fe  Fe7  1  0.33333300  0.66666700  0.10981900  1
  Fe  Fe8  1  0.32988900  0.35782400  0.25000000  1
  Fe  Fe9  1  0.64217600  0.97206500  0.25000000  1
  Fe  Fe10  1  0.02793500  0.67011100  0.25000000  1
  Fe  Fe11  1  0.64217600  0.67011100  0.25000000  1
  Fe  Fe12  1  0.02793500  0.35782400  0.25000000  1
  Fe  Fe13  1  0.32988900  0.97206500  0.25000000  1
  Fe  Fe14  1  0.67011100  0.64217600  0.75000000  1
  Fe  Fe15  1  0.35782400  0.02793500  0.75000000  1
  Fe  Fe16  1  0.97206500  0.32988900  0.75000000  1
  Fe  Fe17  1  0.35782400  0.32988900  0.75000000  1
  Fe  Fe18  1  0.97206500  0.64217600  0.75000000  1
  Fe  Fe19  1  0.67011100  0.02793500  0.75000000  1
  Fe  Fe20  1  0.16794800  0.83205200  0.51313700  1
  Fe  Fe21  1  0.16794800  0.33589500  0.51313700  1
  Fe  Fe22  1  0.66410500  0.83205200  0.51313700  1
  Fe  Fe23  1  0.83205200  0.16794800  0.48686300  1
  Fe  Fe24  1  0.83205200  0.66410500  0.48686300  1
  Fe  Fe25  1  0.33589500  0.16794800  0.48686300  1
  Fe  Fe26  1  0.83205200  0.16794800  0.01313700  1
  Fe  Fe27  1  0.83205200  0.66410500  0.01313700  1
  Fe  Fe28  1  0.33589500  0.16794800  0.01313700  1
  Fe  Fe29  1  0.16794800  0.83205200  0.98686300  1
  Fe  Fe30  1  0.16794800  0.33589500  0.98686300  1
  Fe  Fe31  1  0.66410500  0.83205200  0.98686300  1
  Si  Si32  1  0.50000000  0.50000000  0.50000000  1
  Si  Si33  1  0.50000000  0.00000000  0.50000000  1
  Si  Si34  1  0.00000000  0.50000000  0.50000000  1
  Si  Si35  1  0.50000000  0.50000000  0.00000000  1
  Si  Si36  1  0.50000000  0.00000000  0.00000000  1
  Si  Si37  1  0.00000000  0.50000000  0.00000000  1
