# generated using pymatgen
data_BaMgF4
_symmetry_space_group_name_H-M   'P 1'
_cell_length_a   7.71941843
_cell_length_b   7.71941843
_cell_length_c   5.93465500
_cell_angle_alpha   90.00000000
_cell_angle_beta   90.00000000
_cell_angle_gamma   148.69705764
_symmetry_Int_Tables_number   1
_chemical_formula_structural   BaMgF4
_chemical_formula_sum   'Ba2 Mg2 F8'
_cell_volume   183.73963547
_cell_formula_units_Z   2
loop_
 _symmetry_equiv_pos_site_id
 _symmetry_equiv_pos_as_xyz
  1  'x, y, z'
loop_
 _atom_site_type_symbol
 _atom_site_label
 _atom_site_symmetry_multiplicity
 _atom_site_fract_x
 _atom_site_fract_y
 _atom_site_fract_z
 _atom_site_occupancy
  Ba  Ba0  1  0.65035500  0.34964500  0.14777100  1
  Ba  Ba1  1  0.34964500  0.65035500  0.64777100  1
  Mg  Mg2  1  0.91615400  0.08384600  0.18994900  1
  Mg  Mg3  1  0.08384600  0.91615400  0.68994900  1
  F  F4  1  0.42163000  0.57837000  0.20387800  1
  F  F5  1  0.57837000  0.42163000  0.70387800  1
  F  F6  1  0.80425700  0.19574300  0.37947700  1
  F  F7  1  0.19574300  0.80425700  0.87947700  1
  F  F8  1  0.02726800  0.97273200  0.00620300  1
  F  F9  1  0.97273200  0.02726800  0.50620300  1
  F  F10  1  0.16225300  0.83774700  0.42220200  1
  F  F11  1  0.83774700  0.16225300  0.92220200  1
