# generated using pymatgen
data_Ag2O
_symmetry_space_group_name_H-M   'P 1'
_cell_length_a   6.78034228
_cell_length_b   6.78034228
_cell_length_c   6.78034228
_cell_angle_alpha   123.38706860
_cell_angle_beta   123.04920098
_cell_angle_gamma   84.51119151
_symmetry_Int_Tables_number   1
_chemical_formula_structural   Ag2O
_chemical_formula_sum   'Ag8 O4'
_cell_volume   208.64380092
_cell_formula_units_Z   4
loop_
 _symmetry_equiv_pos_site_id
 _symmetry_equiv_pos_as_xyz
  1  'x, y, z'
loop_
 _atom_site_type_symbol
 _atom_site_label
 _atom_site_symmetry_multiplicity
 _atom_site_fract_x
 _atom_site_fract_y
 _atom_site_fract_z
 _atom_site_occupancy
  Ag  Ag0  1  0.00000000  0.50000000  0.00000000  1
  Ag  Ag1  1  0.00000000  0.00000000  0.50000000  1
  Ag  Ag2  1  0.00000000  0.50000000  0.50000000  1
  Ag  Ag3  1  0.50000000  0.25000000  0.75000000  1
  Ag  Ag4  1  0.00000000  0.00000000  0.00000000  1
  Ag  Ag5  1  0.50000000  0.00000000  0.00000000  1
  Ag  Ag6  1  0.50000000  0.75000000  0.25000000  1
  Ag  Ag7  1  0.50000000  0.50000000  0.50000000  1
  O  O8  1  0.16618800  0.88789200  0.27829600  1
  O  O9  1  0.60959600  0.38789200  0.22170400  1
  O  O10  1  0.39040400  0.61210800  0.77829600  1
  O  O11  1  0.83381200  0.11210800  0.72170400  1
