# generated using pymatgen
data_Ba6Si25
_symmetry_space_group_name_H-M   'P 1'
_cell_length_a   14.16619100
_cell_length_b   14.16619100
_cell_length_c   14.16619100
_cell_angle_alpha   90.00000000
_cell_angle_beta   90.00000000
_cell_angle_gamma   90.00000000
_symmetry_Int_Tables_number   1
_chemical_formula_structural   Ba6Si25
_chemical_formula_sum   'Ba24 Si100'
_cell_volume   2842.88491494
_cell_formula_units_Z   4
loop_
 _symmetry_equiv_pos_site_id
 _symmetry_equiv_pos_as_xyz
  1  'x, y, z'
loop_
 _atom_site_type_symbol
 _atom_site_label
 _atom_site_symmetry_multiplicity
 _atom_site_fract_x
 _atom_site_fract_y
 _atom_site_fract_z
 _atom_site_occupancy
  Ba  Ba0  1  0.18873700  0.18873700  0.18873700  1
  Ba  Ba1  1  0.43873700  0.06126300  0.93873700  1
  Ba  Ba2  1  0.93873700  0.43873700  0.06126300  1
  Ba  Ba3  1  0.06126300  0.93873700  0.43873700  1
  Ba  Ba4  1  0.31126300  0.81126300  0.68873700  1
  Ba  Ba5  1  0.68873700  0.31126300  0.81126300  1
  Ba  Ba6  1  0.81126300  0.68873700  0.31126300  1
  Ba  Ba7  1  0.56126300  0.56126300  0.56126300  1
  Ba  Ba8  1  0.87500000  0.87500000  0.87500000  1
  Ba  Ba9  1  0.12500000  0.37500000  0.62500000  1
  Ba  Ba10  1  0.62500000  0.12500000  0.37500000  1
  Ba  Ba11  1  0.37500000  0.62500000  0.12500000  1
  Ba  Ba12  1  0.12500000  0.80766300  0.05766300  1
  Ba  Ba13  1  0.37500000  0.19233700  0.55766300  1
  Ba  Ba14  1  0.87500000  0.30766300  0.44233700  1
  Ba  Ba15  1  0.80766300  0.05766300  0.12500000  1
  Ba  Ba16  1  0.19233700  0.55766300  0.37500000  1
  Ba  Ba17  1  0.44233700  0.87500000  0.30766300  1
  Ba  Ba18  1  0.05766300  0.12500000  0.80766300  1
  Ba  Ba19  1  0.69233700  0.94233700  0.62500000  1
  Ba  Ba20  1  0.55766300  0.37500000  0.19233700  1
  Ba  Ba21  1  0.94233700  0.62500000  0.69233700  1
  Ba  Ba22  1  0.30766300  0.44233700  0.87500000  1
  Ba  Ba23  1  0.62500000  0.69233700  0.94233700  1
  Si  Si24  1  0.04004400  0.04004400  0.04004400  1
  Si  Si25  1  0.29004400  0.20995600  0.79004400  1
  Si  Si26  1  0.79004400  0.29004400  0.20995600  1
  Si  Si27  1  0.20995600  0.79004400  0.29004400  1
  Si  Si28  1  0.45995600  0.95995600  0.54004400  1
  Si  Si29  1  0.54004400  0.45995600  0.95995600  1
  Si  Si30  1  0.95995600  0.54004400  0.45995600  1
  Si  Si31  1  0.70995600  0.70995600  0.70995600  1
  Si  Si32  1  0.20553200  0.04233200  0.99899600  1
  Si  Si33  1  0.45553200  0.25100400  0.79233200  1
  Si  Si34  1  0.95553200  0.24899600  0.20766800  1
  Si  Si35  1  0.74899600  0.29233200  0.04446800  1
  Si  Si36  1  0.25100400  0.79233200  0.45553200  1
  Si  Si37  1  0.20766800  0.95553200  0.24899600  1
  Si  Si38  1  0.29233200  0.04446800  0.74899600  1
  Si  Si39  1  0.99899600  0.20553200  0.04233200  1
  Si  Si40  1  0.04233200  0.99899600  0.20553200  1
  Si  Si41  1  0.45766800  0.00100400  0.70553200  1
  Si  Si42  1  0.49899600  0.29446800  0.95766800  1
  Si  Si43  1  0.95766800  0.49899600  0.29446800  1
  Si  Si44  1  0.50100400  0.79446800  0.54233200  1
  Si  Si45  1  0.00100400  0.70553200  0.45766800  1
  Si  Si46  1  0.54233200  0.50100400  0.79446800  1
  Si  Si47  1  0.70553200  0.45766800  0.00100400  1
  Si  Si48  1  0.79446800  0.54233200  0.50100400  1
  Si  Si49  1  0.29446800  0.95766800  0.49899600  1
  Si  Si50  1  0.79233200  0.45553200  0.25100400  1
  Si  Si51  1  0.70766800  0.54446800  0.75100400  1
  Si  Si52  1  0.24899600  0.20766800  0.95553200  1
  Si  Si53  1  0.75100400  0.70766800  0.54446800  1
  Si  Si54  1  0.04446800  0.74899600  0.29233200  1
  Si  Si55  1  0.54446800  0.75100400  0.70766800  1
  Si  Si56  1  0.12500000  0.16655900  0.41655900  1
  Si  Si57  1  0.37500000  0.83344100  0.91655900  1
  Si  Si58  1  0.87500000  0.66655900  0.08344100  1
  Si  Si59  1  0.16655900  0.41655900  0.12500000  1
  Si  Si60  1  0.83344100  0.91655900  0.37500000  1
  Si  Si61  1  0.08344100  0.87500000  0.66655900  1
  Si  Si62  1  0.41655900  0.12500000  0.16655900  1
  Si  Si63  1  0.33344100  0.58344100  0.62500000  1
  Si  Si64  1  0.91655900  0.37500000  0.83344100  1
  Si  Si65  1  0.58344100  0.62500000  0.33344100  1
  Si  Si66  1  0.66655900  0.08344100  0.87500000  1
  Si  Si67  1  0.62500000  0.33344100  0.58344100  1
  Si  Si68  1  0.24033800  0.93671500  0.87333000  1
  Si  Si69  1  0.49033800  0.37667000  0.68671500  1
  Si  Si70  1  0.99033800  0.12333000  0.31328500  1
  Si  Si71  1  0.62333000  0.18671500  0.00966200  1
  Si  Si72  1  0.37667000  0.68671500  0.49033800  1
  Si  Si73  1  0.31328500  0.99033800  0.12333000  1
  Si  Si74  1  0.18671500  0.00966200  0.62333000  1
  Si  Si75  1  0.87333000  0.24033800  0.93671500  1
  Si  Si76  1  0.93671500  0.87333000  0.24033800  1
  Si  Si77  1  0.56328500  0.12667000  0.74033800  1
  Si  Si78  1  0.37333000  0.25966200  0.06328500  1
  Si  Si79  1  0.06328500  0.37333000  0.25966200  1
  Si  Si80  1  0.62667000  0.75966200  0.43671500  1
  Si  Si81  1  0.12667000  0.74033800  0.56328500  1
  Si  Si82  1  0.43671500  0.62667000  0.75966200  1
  Si  Si83  1  0.74033800  0.56328500  0.12667000  1
  Si  Si84  1  0.75966200  0.43671500  0.62667000  1
  Si  Si85  1  0.25966200  0.06328500  0.37333000  1
  Si  Si86  1  0.68671500  0.49033800  0.37667000  1
  Si  Si87  1  0.81328500  0.50966200  0.87667000  1
  Si  Si88  1  0.12333000  0.31328500  0.99033800  1
  Si  Si89  1  0.87667000  0.81328500  0.50966200  1
  Si  Si90  1  0.00966200  0.62333000  0.18671500  1
  Si  Si91  1  0.50966200  0.87667000  0.81328500  1
  Si  Si92  1  0.41436400  0.86079000  0.07684900  1
  Si  Si93  1  0.66436400  0.17315100  0.61079000  1
  Si  Si94  1  0.16436400  0.32684900  0.38921000  1
  Si  Si95  1  0.82684900  0.11079000  0.83563600  1
  Si  Si96  1  0.17315100  0.61079000  0.66436400  1
  Si  Si97  1  0.38921000  0.16436400  0.32684900  1
  Si  Si98  1  0.11079000  0.83563600  0.82684900  1
  Si  Si99  1  0.07684900  0.41436400  0.86079000  1
  Si  Si100  1  0.86079000  0.07684900  0.41436400  1
  Si  Si101  1  0.63921000  0.92315100  0.91436400  1
  Si  Si102  1  0.57684900  0.08563600  0.13921000  1
  Si  Si103  1  0.13921000  0.57684900  0.08563600  1
  Si  Si104  1  0.42315100  0.58563600  0.36079000  1
  Si  Si105  1  0.92315100  0.91436400  0.63921000  1
  Si  Si106  1  0.36079000  0.42315100  0.58563600  1
  Si  Si107  1  0.91436400  0.63921000  0.92315100  1
  Si  Si108  1  0.58563600  0.36079000  0.42315100  1
  Si  Si109  1  0.08563600  0.13921000  0.57684900  1
  Si  Si110  1  0.61079000  0.66436400  0.17315100  1
  Si  Si111  1  0.88921000  0.33563600  0.67315100  1
  Si  Si112  1  0.32684900  0.38921000  0.16436400  1
  Si  Si113  1  0.67315100  0.88921000  0.33563600  1
  Si  Si114  1  0.83563600  0.82684900  0.11079000  1
  Si  Si115  1  0.33563600  0.67315100  0.88921000  1
  Si  Si116  1  0.32539800  0.32539800  0.32539800  1
  Si  Si117  1  0.57539800  0.92460200  0.07539800  1
  Si  Si118  1  0.07539800  0.57539800  0.92460200  1
  Si  Si119  1  0.92460200  0.07539800  0.57539800  1
  Si  Si120  1  0.17460200  0.67460200  0.82539800  1
  Si  Si121  1  0.82539800  0.17460200  0.67460200  1
  Si  Si122  1  0.67460200  0.82539800  0.17460200  1
  Si  Si123  1  0.42460200  0.42460200  0.42460200  1
