# generated using pymatgen
data_CoPt3
_symmetry_space_group_name_H-M   'P 1'
_cell_length_a   9.15055908
_cell_length_b   9.15055908
_cell_length_c   9.15055907
_cell_angle_alpha   17.32622065
_cell_angle_beta   17.32622065
_cell_angle_gamma   17.32622039
_symmetry_Int_Tables_number   1
_chemical_formula_structural   CoPt3
_chemical_formula_sum   'Co1 Pt3'
_cell_volume   59.29986683
_cell_formula_units_Z   1
loop_
 _symmetry_equiv_pos_site_id
 _symmetry_equiv_pos_as_xyz
  1  'x, y, z'
loop_
 _atom_site_type_symbol
 _atom_site_label
 _atom_site_symmetry_multiplicity
 _atom_site_fract_x
 _atom_site_fract_y
 _atom_site_fract_z
 _atom_site_occupancy
  Co  Co0  1  0.00000000  0.00000000  0.00000000  1
  Pt  Pt1  1  0.25604800  0.25604800  0.25604800  1
  Pt  Pt2  1  0.50000000  0.50000000  0.50000000  1
  Pt  Pt3  1  0.74395200  0.74395200  0.74395200  1
