# generated using pymatgen
data_Xe
_symmetry_space_group_name_H-M   'P 1'
_cell_length_a   9.43239697
_cell_length_b   9.43239697
_cell_length_c   5.07842400
_cell_angle_alpha   90.00000000
_cell_angle_beta   90.00000000
_cell_angle_gamma   130.24759590
_symmetry_Int_Tables_number   1
_chemical_formula_structural   Xe
_chemical_formula_sum   Xe4
_cell_volume   344.86201569
_cell_formula_units_Z   4
loop_
 _symmetry_equiv_pos_site_id
 _symmetry_equiv_pos_as_xyz
  1  'x, y, z'
loop_
 _atom_site_type_symbol
 _atom_site_label
 _atom_site_symmetry_multiplicity
 _atom_site_fract_x
 _atom_site_fract_y
 _atom_site_fract_z
 _atom_site_occupancy
  Xe  Xe0  1  0.36689700  0.63310300  0.48550900  1
  Xe  Xe1  1  0.86689700  0.13310300  0.01449100  1
  Xe  Xe2  1  0.13310300  0.86689700  0.98550900  1
  Xe  Xe3  1  0.63310300  0.36689700  0.51449100  1
