# generated using pymatgen
data_Nb4Ag2O11
_symmetry_space_group_name_H-M   'P 1'
_cell_length_a   13.24308660
_cell_length_b   13.24308660
_cell_length_c   13.24308617
_cell_angle_alpha   27.34979933
_cell_angle_beta   27.34979933
_cell_angle_gamma   27.34979700
_symmetry_Int_Tables_number   1
_chemical_formula_structural   Nb4Ag2O11
_chemical_formula_sum   'Nb8 Ag4 O22'
_cell_volume   432.59587499
_cell_formula_units_Z   2
loop_
 _symmetry_equiv_pos_site_id
 _symmetry_equiv_pos_as_xyz
  1  'x, y, z'
loop_
 _atom_site_type_symbol
 _atom_site_label
 _atom_site_symmetry_multiplicity
 _atom_site_fract_x
 _atom_site_fract_y
 _atom_site_fract_z
 _atom_site_occupancy
  Nb  Nb0  1  0.00393700  0.00393700  0.00393700  1
  Nb  Nb1  1  0.50393700  0.50393700  0.50393700  1
  Nb  Nb2  1  0.88507200  0.62198400  0.24739100  1
  Nb  Nb3  1  0.62198400  0.24739100  0.88507200  1
  Nb  Nb4  1  0.24739100  0.88507200  0.62198400  1
  Nb  Nb5  1  0.12198400  0.38507200  0.74739100  1
  Nb  Nb6  1  0.74739100  0.12198400  0.38507200  1
  Nb  Nb7  1  0.38507200  0.74739100  0.12198400  1
  Ag  Ag8  1  0.32861700  0.32861700  0.32861700  1
  Ag  Ag9  1  0.82861700  0.82861700  0.82861700  1
  Ag  Ag10  1  0.17390900  0.17390900  0.17390900  1
  Ag  Ag11  1  0.67390900  0.67390900  0.67390900  1
  O  O12  1  0.94739600  0.71698800  0.23595700  1
  O  O13  1  0.71698800  0.23595700  0.94739600  1
  O  O14  1  0.23595700  0.94739600  0.71698800  1
  O  O15  1  0.21698800  0.44739600  0.73595700  1
  O  O16  1  0.73595700  0.21698800  0.44739600  1
  O  O17  1  0.44739600  0.73595700  0.21698800  1
  O  O18  1  0.09298000  0.09298000  0.09298000  1
  O  O19  1  0.59298000  0.59298000  0.59298000  1
  O  O20  1  0.40316100  0.40316100  0.40316100  1
  O  O21  1  0.90316100  0.90316100  0.90316100  1
  O  O22  1  0.50258300  0.99152500  0.25117600  1
  O  O23  1  0.99152500  0.25117600  0.50258300  1
  O  O24  1  0.25117600  0.50258300  0.99152500  1
  O  O25  1  0.49152500  0.00258300  0.75117600  1
  O  O26  1  0.75117600  0.49152500  0.00258300  1
  O  O27  1  0.00258300  0.75117600  0.49152500  1
  O  O28  1  0.54657900  0.25510400  0.78494000  1
  O  O29  1  0.25510400  0.78494000  0.54657900  1
  O  O30  1  0.78494000  0.54657900  0.25510400  1
  O  O31  1  0.75510400  0.04657900  0.28494000  1
  O  O32  1  0.28494000  0.75510400  0.04657900  1
  O  O33  1  0.04657900  0.28494000  0.75510400  1
