# generated using pymatgen
data_Sr2LaMn2O7
_symmetry_space_group_name_H-M   'P 1'
_cell_length_a   5.56700573
_cell_length_b   5.56733807
_cell_length_c   10.39767545
_cell_angle_alpha   89.99989073
_cell_angle_beta   74.47119514
_cell_angle_gamma   89.99966524
_symmetry_Int_Tables_number   1
_chemical_formula_structural   Sr2LaMn2O7
_chemical_formula_sum   'Sr4 La2 Mn4 O14'
_cell_volume   310.49558291
_cell_formula_units_Z   2
loop_
 _symmetry_equiv_pos_site_id
 _symmetry_equiv_pos_as_xyz
  1  'x, y, z'
loop_
 _atom_site_type_symbol
 _atom_site_label
 _atom_site_symmetry_multiplicity
 _atom_site_fract_x
 _atom_site_fract_y
 _atom_site_fract_z
 _atom_site_occupancy
  Sr  Sr0  1  0.31699600  0.99999900  0.36601100  1
  Sr  Sr1  1  0.81716100  0.50000000  0.36569100  1
  Sr  Sr2  1  0.18300200  0.50000200  0.63399000  1
  Sr  Sr3  1  0.68283900  0.00000000  0.63430900  1
  La  La4  1  0.49998500  0.99999600  0.00002200  1
  La  La5  1  0.00001700  0.50000000  0.99997800  1
  Mn  Mn6  1  0.09730200  0.99999200  0.80541200  1
  Mn  Mn7  1  0.40269600  0.49999800  0.19458600  1
  Mn  Mn8  1  0.59900000  0.50000500  0.80202500  1
  Mn  Mn9  1  0.90100100  0.00000100  0.19797400  1
  O  O10  1  0.50181200  0.49999900  0.99638300  1
  O  O11  1  0.99818700  0.00000200  0.00361900  1
  O  O12  1  0.19314300  0.00000000  0.61378700  1
  O  O13  1  0.69422300  0.50000000  0.61163900  1
  O  O14  1  0.30685700  0.50000000  0.38621300  1
  O  O15  1  0.80577600  0.99999900  0.38836300  1
  O  O16  1  0.85061100  0.75901500  0.81709400  1
  O  O17  1  0.33228400  0.24100100  0.81709700  1
  O  O18  1  0.33228000  0.75899900  0.81709800  1
  O  O19  1  0.85060900  0.24099300  0.81709300  1
  O  O20  1  0.64939000  0.74099000  0.18290600  1
  O  O21  1  0.16772000  0.25899900  0.18290200  1
  O  O22  1  0.16771600  0.74100100  0.18290200  1
  O  O23  1  0.64939300  0.25901000  0.18290700  1
