# generated using pymatgen
data_TbScGe
_symmetry_space_group_name_H-M   'P 1'
_cell_length_a   8.36418597
_cell_length_b   8.36418597
_cell_length_c   8.36418597
_cell_angle_alpha   150.54720293
_cell_angle_beta   150.54720293
_cell_angle_gamma   42.13875749
_symmetry_Int_Tables_number   1
_chemical_formula_structural   TbScGe
_chemical_formula_sum   'Tb2 Sc2 Ge2'
_cell_volume   141.13796643
_cell_formula_units_Z   2
loop_
 _symmetry_equiv_pos_site_id
 _symmetry_equiv_pos_as_xyz
  1  'x, y, z'
loop_
 _atom_site_type_symbol
 _atom_site_label
 _atom_site_symmetry_multiplicity
 _atom_site_fract_x
 _atom_site_fract_y
 _atom_site_fract_z
 _atom_site_occupancy
  Tb  Tb0  1  0.67674100  0.67674100  0.00000000  1
  Tb  Tb1  1  0.32325900  0.32325900  0.00000000  1
  Sc  Sc2  1  0.50000000  0.00000000  0.50000000  1
  Sc  Sc3  1  0.00000000  0.50000000  0.50000000  1
  Ge  Ge4  1  0.12825500  0.12825500  0.00000000  1
  Ge  Ge5  1  0.87174500  0.87174500  0.00000000  1
