# generated using pymatgen
data_Pr2Fe14B
_symmetry_space_group_name_H-M   'P 1'
_cell_length_a   8.75066500
_cell_length_b   8.75066500
_cell_length_c   12.61242500
_cell_angle_alpha   90.00000000
_cell_angle_beta   90.00000000
_cell_angle_gamma   90.00000000
_symmetry_Int_Tables_number   1
_chemical_formula_structural   Pr2Fe14B
_chemical_formula_sum   'Pr8 Fe56 B4'
_cell_volume   965.78557174
_cell_formula_units_Z   4
loop_
 _symmetry_equiv_pos_site_id
 _symmetry_equiv_pos_as_xyz
  1  'x, y, z'
loop_
 _atom_site_type_symbol
 _atom_site_label
 _atom_site_symmetry_multiplicity
 _atom_site_fract_x
 _atom_site_fract_y
 _atom_site_fract_z
 _atom_site_occupancy
  Pr  Pr0  1  0.24178200  0.24178200  0.00000000  1
  Pr  Pr1  1  0.25821800  0.74178200  0.50000000  1
  Pr  Pr2  1  0.67999300  0.67999300  0.50000000  1
  Pr  Pr3  1  0.75821800  0.75821800  0.00000000  1
  Pr  Pr4  1  0.32000700  0.32000700  0.50000000  1
  Pr  Pr5  1  0.17999300  0.82000700  0.00000000  1
  Pr  Pr6  1  0.74178200  0.25821800  0.50000000  1
  Pr  Pr7  1  0.82000700  0.17999300  0.00000000  1
  Fe  Fe8  1  0.47481900  0.85641700  0.67806300  1
  Fe  Fe9  1  0.47481900  0.85641700  0.32193700  1
  Fe  Fe10  1  0.30488700  0.30488700  0.25010800  1
  Fe  Fe11  1  0.14358300  0.52518100  0.32193700  1
  Fe  Fe12  1  0.73244700  0.95866000  0.61446400  1
  Fe  Fe13  1  0.69511300  0.69511300  0.25010800  1
  Fe  Fe14  1  0.00000000  0.00000000  0.10115100  1
  Fe  Fe15  1  0.85641700  0.47481900  0.32193700  1
  Fe  Fe16  1  0.76755300  0.45866000  0.88553600  1
  Fe  Fe17  1  0.60259500  0.39740500  0.74492200  1
  Fe  Fe18  1  0.26755300  0.04134000  0.38553600  1
  Fe  Fe19  1  0.97481900  0.64358300  0.82193700  1
  Fe  Fe20  1  0.73244700  0.95866000  0.38553600  1
  Fe  Fe21  1  0.14358300  0.52518100  0.67806300  1
  Fe  Fe22  1  0.89740500  0.89740500  0.75507800  1
  Fe  Fe23  1  0.85641700  0.47481900  0.67806300  1
  Fe  Fe24  1  0.50000000  0.50000000  0.39884900  1
  Fe  Fe25  1  0.30488700  0.30488700  0.74989200  1
  Fe  Fe26  1  0.50000000  0.50000000  0.60115100  1
  Fe  Fe27  1  0.26755300  0.04134000  0.61446400  1
  Fe  Fe28  1  0.54134000  0.23244700  0.88553600  1
  Fe  Fe29  1  0.45866000  0.76755300  0.88553600  1
  Fe  Fe30  1  0.10259500  0.10259500  0.75507800  1
  Fe  Fe31  1  0.54134000  0.23244700  0.11446400  1
  Fe  Fe32  1  0.76755300  0.45866000  0.11446400  1
  Fe  Fe33  1  0.04134000  0.26755300  0.38553600  1
  Fe  Fe34  1  0.10259500  0.10259500  0.24492200  1
  Fe  Fe35  1  0.02518100  0.35641700  0.82193700  1
  Fe  Fe36  1  0.89740500  0.89740500  0.24492200  1
  Fe  Fe37  1  0.35641700  0.02518100  0.17806300  1
  Fe  Fe38  1  0.45866000  0.76755300  0.11446400  1
  Fe  Fe39  1  0.60259500  0.39740500  0.25507800  1
  Fe  Fe40  1  0.69511300  0.69511300  0.74989200  1
  Fe  Fe41  1  0.80488700  0.19511300  0.75010800  1
  Fe  Fe42  1  0.23244700  0.54134000  0.11446400  1
  Fe  Fe43  1  0.02518100  0.35641700  0.17806300  1
  Fe  Fe44  1  0.64358300  0.97481900  0.17806300  1
  Fe  Fe45  1  0.39740500  0.60259500  0.25507800  1
  Fe  Fe46  1  0.95866000  0.73244700  0.61446400  1
  Fe  Fe47  1  0.50000000  0.00000000  0.00000000  1
  Fe  Fe48  1  0.80488700  0.19511300  0.24989200  1
  Fe  Fe49  1  0.04134000  0.26755300  0.61446400  1
  Fe  Fe50  1  0.52518100  0.14358300  0.67806300  1
  Fe  Fe51  1  0.64358300  0.97481900  0.82193700  1
  Fe  Fe52  1  0.00000000  0.00000000  0.89884900  1
  Fe  Fe53  1  0.95866000  0.73244700  0.38553600  1
  Fe  Fe54  1  0.52518100  0.14358300  0.32193700  1
  Fe  Fe55  1  0.97481900  0.64358300  0.17806300  1
  Fe  Fe56  1  0.19511300  0.80488700  0.24989200  1
  Fe  Fe57  1  0.19511300  0.80488700  0.75010800  1
  Fe  Fe58  1  0.00000000  0.50000000  0.00000000  1
  Fe  Fe59  1  0.39740500  0.60259500  0.74492200  1
  Fe  Fe60  1  0.35641700  0.02518100  0.82193700  1
  Fe  Fe61  1  0.00000000  0.50000000  0.50000000  1
  Fe  Fe62  1  0.23244700  0.54134000  0.88553600  1
  Fe  Fe63  1  0.50000000  0.00000000  0.50000000  1
  B  B64  1  0.60373100  0.39626900  0.00000000  1
  B  B65  1  0.39626900  0.60373100  0.00000000  1
  B  B66  1  0.89626900  0.89626900  0.50000000  1
  B  B67  1  0.10373100  0.10373100  0.50000000  1
