# generated using pymatgen
data_Ba2Ti5(Bi2O9)2
_symmetry_space_group_name_H-M   'P 1'
_cell_length_a   25.38388933
_cell_length_b   25.38388933
_cell_length_c   5.58124866
_cell_angle_alpha   89.81334195
_cell_angle_beta   89.81334195
_cell_angle_gamma   167.36262332
_symmetry_Int_Tables_number   1
_chemical_formula_structural   Ba2Ti5(Bi2O9)2
_chemical_formula_sum   'Ba4 Ti10 Bi8 O36'
_cell_volume   786.43826862
_cell_formula_units_Z   2
loop_
 _symmetry_equiv_pos_site_id
 _symmetry_equiv_pos_as_xyz
  1  'x, y, z'
loop_
 _atom_site_type_symbol
 _atom_site_label
 _atom_site_symmetry_multiplicity
 _atom_site_fract_x
 _atom_site_fract_y
 _atom_site_fract_z
 _atom_site_occupancy
  Ba  Ba0  1  0.63909100  0.88806800  0.51145600  1
  Ba  Ba1  1  0.88806800  0.63909100  0.01145600  1
  Ba  Ba2  1  0.45715800  0.03907200  0.50321200  1
  Ba  Ba3  1  0.03907200  0.45715800  0.00321200  1
  Ti  Ti4  1  0.91296500  0.58002800  0.51852800  1
  Ti  Ti5  1  0.09762900  0.42915300  0.49945800  1
  Ti  Ti6  1  0.42915300  0.09762900  0.99945800  1
  Ti  Ti7  1  0.58002800  0.91296500  0.01852800  1
  Ti  Ti8  1  0.85696500  0.70044700  0.51238400  1
  Ti  Ti9  1  0.17808800  0.33483800  0.51701900  1
  Ti  Ti10  1  0.33483800  0.17808800  0.01701900  1
  Ti  Ti11  1  0.70044700  0.85696500  0.01238400  1
  Ti  Ti12  1  0.00130400  0.50026700  0.50554600  1
  Ti  Ti13  1  0.50026700  0.00130400  0.00554600  1
  Bi  Bi14  1  0.70528800  0.75486500  0.47188200  1
  Bi  Bi15  1  0.25476400  0.20560400  0.51826600  1
  Bi  Bi16  1  0.20560400  0.25476400  0.01826600  1
  Bi  Bi17  1  0.75486500  0.70528800  0.97188200  1
  Bi  Bi18  1  0.42036000  0.18958800  0.53648900  1
  Bi  Bi19  1  0.18958800  0.42036000  0.03648900  1
  Bi  Bi20  1  0.58953200  0.00058900  0.55886100  1
  Bi  Bi21  1  0.00058900  0.58953200  0.05886100  1
  O  O22  1  0.14559000  0.80652700  0.22769600  1
  O  O23  1  0.32318300  0.66357800  0.72451800  1
  O  O24  1  0.66357800  0.32318300  0.22451800  1
  O  O25  1  0.80652700  0.14559000  0.72769600  1
  O  O26  1  0.22128300  0.72042800  0.22564900  1
  O  O27  1  0.22791300  0.72617500  0.72838500  1
  O  O28  1  0.72617500  0.22791300  0.22838500  1
  O  O29  1  0.72042800  0.22128300  0.72564900  1
  O  O30  1  0.49480900  0.49380400  0.24973300  1
  O  O31  1  0.99568000  0.99790200  0.75687800  1
  O  O32  1  0.99790200  0.99568000  0.25687800  1
  O  O33  1  0.49380400  0.49480900  0.74973300  1
  O  O34  1  0.82229800  0.73574100  0.54732600  1
  O  O35  1  0.22378400  0.31128300  0.48136000  1
  O  O36  1  0.31128300  0.22378400  0.98136000  1
  O  O37  1  0.73574100  0.82229800  0.04732600  1
  O  O38  1  0.83382600  0.57545300  0.50400800  1
  O  O39  1  0.13284400  0.39078000  0.46879200  1
  O  O40  1  0.39078000  0.13284400  0.96879200  1
  O  O41  1  0.57545300  0.83382600  0.00400800  1
  O  O42  1  0.41885400  0.59242600  0.25082900  1
  O  O43  1  0.10799900  0.93428100  0.73542200  1
  O  O44  1  0.93428100  0.10799900  0.23542200  1
  O  O45  1  0.59242600  0.41885400  0.75082900  1
  O  O46  1  0.07576600  0.90718900  0.24299300  1
  O  O47  1  0.39691700  0.56730100  0.77048100  1
  O  O48  1  0.56730100  0.39691700  0.27048100  1
  O  O49  1  0.90718900  0.07576600  0.74299300  1
  O  O50  1  0.95909800  0.53957300  0.45757500  1
  O  O51  1  0.98545500  0.40579800  0.49698900  1
  O  O52  1  0.40579800  0.98545500  0.99698900  1
  O  O53  1  0.53957300  0.95909800  0.95757500  1
  O  O54  1  0.31053500  0.65332200  0.23453900  1
  O  O55  1  0.14400500  0.80693700  0.74372400  1
  O  O56  1  0.80693700  0.14400500  0.24372400  1
  O  O57  1  0.65332200  0.31053500  0.73453900  1
