# generated using pymatgen
data_NiPd
_symmetry_space_group_name_H-M   'P 1'
_cell_length_a   4.53481798
_cell_length_b   4.53481798
_cell_length_c   4.53481815
_cell_angle_alpha   34.60556434
_cell_angle_beta   34.60556434
_cell_angle_gamma   34.60556002
_symmetry_Int_Tables_number   1
_chemical_formula_structural   NiPd
_chemical_formula_sum   'Ni1 Pd1'
_cell_volume   26.83871718
_cell_formula_units_Z   1
loop_
 _symmetry_equiv_pos_site_id
 _symmetry_equiv_pos_as_xyz
  1  'x, y, z'
loop_
 _atom_site_type_symbol
 _atom_site_label
 _atom_site_symmetry_multiplicity
 _atom_site_fract_x
 _atom_site_fract_y
 _atom_site_fract_z
 _atom_site_occupancy
  Ni  Ni0  1  0.00000000  0.00000000  0.00000000  1
  Pd  Pd1  1  0.50000000  0.50000000  0.50000000  1
