# generated using pymatgen
data_BaNb2Bi2O9
_symmetry_space_group_name_H-M   'P 1'
_cell_length_a   13.05287155
_cell_length_b   13.05287155
_cell_length_c   5.76026500
_cell_angle_alpha   90.00000000
_cell_angle_beta   90.00000000
_cell_angle_gamma   154.67017332
_symmetry_Int_Tables_number   1
_chemical_formula_structural   BaNb2Bi2O9
_chemical_formula_sum   'Ba2 Nb4 Bi4 O18'
_cell_volume   419.87909286
_cell_formula_units_Z   2
loop_
 _symmetry_equiv_pos_site_id
 _symmetry_equiv_pos_as_xyz
  1  'x, y, z'
loop_
 _atom_site_type_symbol
 _atom_site_label
 _atom_site_symmetry_multiplicity
 _atom_site_fract_x
 _atom_site_fract_y
 _atom_site_fract_z
 _atom_site_occupancy
  Ba  Ba0  1  0.75171400  0.75171400  0.53520800  1
  Ba  Ba1  1  0.24828600  0.24828600  0.03520800  1
  Nb  Nb2  1  0.33715300  0.16626100  0.52286100  1
  Nb  Nb3  1  0.83373900  0.66284700  0.02286100  1
  Nb  Nb4  1  0.16626100  0.33715300  0.52286100  1
  Nb  Nb5  1  0.66284700  0.83373900  0.02286100  1
  Bi  Bi6  1  0.47791300  0.07508300  0.92720600  1
  Bi  Bi7  1  0.92491700  0.52208700  0.42720600  1
  Bi  Bi8  1  0.52208700  0.92491700  0.42720600  1
  Bi  Bi9  1  0.07508300  0.47791300  0.92720600  1
  O  O10  1  0.73677300  0.23375800  0.23152000  1
  O  O11  1  0.42803800  0.57852900  0.79909800  1
  O  O12  1  0.13543200  0.45336600  0.56651400  1
  O  O13  1  0.42147100  0.57196200  0.29909800  1
  O  O14  1  0.08561100  0.91939500  0.80291000  1
  O  O15  1  0.91939500  0.08561100  0.80291000  1
  O  O16  1  0.54663400  0.86456800  0.06651400  1
  O  O17  1  0.86456800  0.54663400  0.06651400  1
  O  O18  1  0.08060500  0.91438900  0.30291000  1
  O  O19  1  0.91438900  0.08060500  0.30291000  1
  O  O20  1  0.57852900  0.42803800  0.79909800  1
  O  O21  1  0.57196200  0.42147100  0.29909800  1
  O  O22  1  0.26322700  0.76624200  0.73152000  1
  O  O23  1  0.23375800  0.73677300  0.23152000  1
  O  O24  1  0.76624200  0.26322700  0.73152000  1
  O  O25  1  0.45336600  0.13543200  0.56651400  1
  O  O26  1  0.76494700  0.76494700  0.05257400  1
  O  O27  1  0.23505300  0.23505300  0.55257400  1
