# generated using pymatgen
data_Fe2CoO4
_symmetry_space_group_name_H-M   'P 1'
_cell_length_a   5.96010801
_cell_length_b   5.96010801
_cell_length_c   5.96010801
_cell_angle_alpha   119.97186973
_cell_angle_beta   119.80660374
_cell_angle_gamma   90.19201429
_symmetry_Int_Tables_number   1
_chemical_formula_structural   Fe2CoO4
_chemical_formula_sum   'Fe4 Co2 O8'
_cell_volume   149.95816171
_cell_formula_units_Z   2
loop_
 _symmetry_equiv_pos_site_id
 _symmetry_equiv_pos_as_xyz
  1  'x, y, z'
loop_
 _atom_site_type_symbol
 _atom_site_label
 _atom_site_symmetry_multiplicity
 _atom_site_fract_x
 _atom_site_fract_y
 _atom_site_fract_z
 _atom_site_occupancy
  Fe  Fe0  1  0.62253000  0.87253000  0.75000000  1
  Fe  Fe1  1  0.37747000  0.12747000  0.25000000  1
  Fe  Fe2  1  0.00000000  0.50000000  0.50000000  1
  Fe  Fe3  1  0.50000000  0.50000000  0.00000000  1
  Co  Co4  1  0.00000000  0.00000000  0.50000000  1
  Co  Co5  1  0.00000000  0.50000000  0.00000000  1
  O  O6  1  0.23127700  0.25378800  0.52251100  1
  O  O7  1  0.78983600  0.25594600  0.53388900  1
  O  O8  1  0.23127700  0.70876600  0.97748900  1
  O  O9  1  0.22205700  0.25594600  0.96611100  1
  O  O10  1  0.77794300  0.74405400  0.03388900  1
  O  O11  1  0.76872300  0.29123400  0.02251100  1
  O  O12  1  0.21016400  0.74405400  0.46611100  1
  O  O13  1  0.76872300  0.74621200  0.47748900  1
