# generated using pymatgen
data_Zn(CoO2)2
_symmetry_space_group_name_H-M   'P 1'
_cell_length_a   2.95632800
_cell_length_b   9.18805400
_cell_length_c   10.26824000
_cell_angle_alpha   90.00000000
_cell_angle_beta   90.00000000
_cell_angle_gamma   90.00000000
_symmetry_Int_Tables_number   1
_chemical_formula_structural   Zn(CoO2)2
_chemical_formula_sum   'Zn4 Co8 O16'
_cell_volume   278.91518970
_cell_formula_units_Z   4
loop_
 _symmetry_equiv_pos_site_id
 _symmetry_equiv_pos_as_xyz
  1  'x, y, z'
loop_
 _atom_site_type_symbol
 _atom_site_label
 _atom_site_symmetry_multiplicity
 _atom_site_fract_x
 _atom_site_fract_y
 _atom_site_fract_z
 _atom_site_occupancy
  Zn  Zn0  1  0.75000000  0.74477300  0.34399900  1
  Zn  Zn1  1  0.25000000  0.25522700  0.65600100  1
  Zn  Zn2  1  0.75000000  0.24477300  0.15600100  1
  Zn  Zn3  1  0.25000000  0.75522700  0.84399900  1
  Co  Co4  1  0.25000000  0.90661100  0.10333000  1
  Co  Co5  1  0.75000000  0.59338900  0.60333000  1
  Co  Co6  1  0.25000000  0.40661100  0.39667000  1
  Co  Co7  1  0.75000000  0.09338900  0.89667000  1
  Co  Co8  1  0.75000000  0.05859700  0.38427300  1
  Co  Co9  1  0.25000000  0.94140300  0.61572700  1
  Co  Co10  1  0.75000000  0.55859700  0.11572700  1
  Co  Co11  1  0.25000000  0.44140300  0.88427300  1
  O  O12  1  0.25000000  0.40258100  0.06395900  1
  O  O13  1  0.75000000  0.59741900  0.93604100  1
  O  O14  1  0.25000000  0.90258100  0.43604100  1
  O  O15  1  0.75000000  0.09741900  0.56395900  1
  O  O16  1  0.25000000  0.55943700  0.72274800  1
  O  O17  1  0.75000000  0.44056300  0.27725200  1
  O  O18  1  0.25000000  0.05943700  0.77725200  1
  O  O19  1  0.75000000  0.94056300  0.22274800  1
  O  O20  1  0.25000000  0.11507400  0.04291100  1
  O  O21  1  0.75000000  0.88492600  0.95708900  1
  O  O22  1  0.25000000  0.61507400  0.45708900  1
  O  O23  1  0.75000000  0.38492600  0.54291100  1
  O  O24  1  0.75000000  0.30481400  0.82289700  1
  O  O25  1  0.25000000  0.69518600  0.17710300  1
  O  O26  1  0.25000000  0.19518600  0.32289700  1
  O  O27  1  0.75000000  0.80481400  0.67710300  1
