# generated using pymatgen
data_FePO4
_symmetry_space_group_name_H-M   'P 1'
_cell_length_a   9.29499673
_cell_length_b   9.29499673
_cell_length_c   15.72212442
_cell_angle_alpha   62.44477469
_cell_angle_beta   62.44477469
_cell_angle_gamma   31.27294174
_symmetry_Int_Tables_number   1
_chemical_formula_structural   FePO4
_chemical_formula_sum   'Fe8 P8 O32'
_cell_volume   618.44745070
_cell_formula_units_Z   8
loop_
 _symmetry_equiv_pos_site_id
 _symmetry_equiv_pos_as_xyz
  1  'x, y, z'
loop_
 _atom_site_type_symbol
 _atom_site_label
 _atom_site_symmetry_multiplicity
 _atom_site_fract_x
 _atom_site_fract_y
 _atom_site_fract_z
 _atom_site_occupancy
  Fe  Fe0  1  0.40871700  0.79820900  0.52298800  1
  Fe  Fe1  1  0.20179100  0.59128300  0.97701200  1
  Fe  Fe2  1  0.59128300  0.20179100  0.47701200  1
  Fe  Fe3  1  0.00000000  0.50000000  0.50000000  1
  Fe  Fe4  1  0.79820900  0.40871700  0.02298800  1
  Fe  Fe5  1  0.67318100  0.32681900  0.25000000  1
  Fe  Fe6  1  0.32681900  0.67318100  0.75000000  1
  Fe  Fe7  1  0.50000000  0.00000000  0.00000000  1
  P  P8  1  0.48615400  0.94006000  0.64432600  1
  P  P9  1  0.81127300  0.22327900  0.87877700  1
  P  P10  1  0.51384600  0.05994000  0.35567400  1
  P  P11  1  0.22327900  0.81127300  0.37877700  1
  P  P12  1  0.94006000  0.48615400  0.14432600  1
  P  P13  1  0.05994000  0.51384600  0.85567400  1
  P  P14  1  0.18872700  0.77672100  0.12122300  1
  P  P15  1  0.77672100  0.18872700  0.62122300  1
  O  O16  1  0.19901300  0.29299200  0.40289200  1
  O  O17  1  0.71680200  0.14047200  0.57125800  1
  O  O18  1  0.29299200  0.19901300  0.90289200  1
  O  O19  1  0.60849200  0.24195100  0.94925400  1
  O  O20  1  0.64875800  0.80045400  0.44352300  1
  O  O21  1  0.67753800  0.43183400  0.78707600  1
  O  O22  1  0.75804900  0.39150800  0.55074600  1
  O  O23  1  0.90787300  0.10046100  0.36067500  1
  O  O24  1  0.39150800  0.75804900  0.05074600  1
  O  O25  1  0.85952800  0.28319800  0.92874200  1
  O  O26  1  0.62209200  0.12724000  0.36331800  1
  O  O27  1  0.99812600  0.40501700  0.23977800  1
  O  O28  1  0.28319800  0.85952800  0.42874200  1
  O  O29  1  0.10046100  0.90787300  0.86067500  1
  O  O30  1  0.80098700  0.70700800  0.59710800  1
  O  O31  1  0.37790800  0.87276000  0.63668200  1
  O  O32  1  0.40501700  0.99812600  0.73977800  1
  O  O33  1  0.24195100  0.60849200  0.44925400  1
  O  O34  1  0.12724000  0.62209200  0.86331800  1
  O  O35  1  0.00187400  0.59498300  0.76022200  1
  O  O36  1  0.89953900  0.09212700  0.13932500  1
  O  O37  1  0.80045400  0.64875800  0.94352300  1
  O  O38  1  0.09212700  0.89953900  0.63932500  1
  O  O39  1  0.43183400  0.67753800  0.28707600  1
  O  O40  1  0.14047200  0.71680200  0.07125800  1
  O  O41  1  0.70700800  0.80098700  0.09710800  1
  O  O42  1  0.59498300  0.00187400  0.26022200  1
  O  O43  1  0.19954600  0.35124200  0.05647700  1
  O  O44  1  0.35124200  0.19954600  0.55647700  1
  O  O45  1  0.56816600  0.32246200  0.71292400  1
  O  O46  1  0.32246200  0.56816600  0.21292400  1
  O  O47  1  0.87276000  0.37790800  0.13668200  1
