# generated using pymatgen
data_Co2O3
_symmetry_space_group_name_H-M   'P 1'
_cell_length_a   5.15061024
_cell_length_b   5.15061024
_cell_length_c   15.21636600
_cell_angle_alpha   90.00000000
_cell_angle_beta   90.00000000
_cell_angle_gamma   145.92193170
_symmetry_Int_Tables_number   1
_chemical_formula_structural   Co2O3
_chemical_formula_sum   'Co8 O12'
_cell_volume   226.18613796
_cell_formula_units_Z   4
loop_
 _symmetry_equiv_pos_site_id
 _symmetry_equiv_pos_as_xyz
  1  'x, y, z'
loop_
 _atom_site_type_symbol
 _atom_site_label
 _atom_site_symmetry_multiplicity
 _atom_site_fract_x
 _atom_site_fract_y
 _atom_site_fract_z
 _atom_site_occupancy
  Co  Co0  1  0.63803600  0.36196400  0.04755900  1
  Co  Co1  1  0.36196400  0.63803600  0.95244100  1
  Co  Co2  1  0.63803600  0.36196400  0.45244100  1
  Co  Co3  1  0.36196400  0.63803600  0.54755900  1
  Co  Co4  1  0.09171600  0.90828400  0.64004600  1
  Co  Co5  1  0.90828400  0.09171600  0.35995400  1
  Co  Co6  1  0.90828400  0.09171600  0.14004600  1
  Co  Co7  1  0.09171600  0.90828400  0.85995400  1
  O  O8  1  0.00000000  0.00000000  0.50000000  1
  O  O9  1  0.00000000  0.00000000  0.00000000  1
  O  O10  1  0.46443300  0.53556700  0.85281900  1
  O  O11  1  0.53556700  0.46443300  0.14718100  1
  O  O12  1  0.53556700  0.46443300  0.35281900  1
  O  O13  1  0.46443300  0.53556700  0.64718100  1
  O  O14  1  0.71954300  0.28045700  0.92677500  1
  O  O15  1  0.28045700  0.71954300  0.07322500  1
  O  O16  1  0.28045700  0.71954300  0.42677500  1
  O  O17  1  0.71954300  0.28045700  0.57322500  1
  O  O18  1  0.16000300  0.83999700  0.75000000  1
  O  O19  1  0.83999700  0.16000300  0.25000000  1
