# generated using pymatgen
data_Nb2Ni4O9
_symmetry_space_group_name_H-M   'P 1'
_cell_length_a   10.21240443
_cell_length_b   10.23681641
_cell_length_c   15.36080845
_cell_angle_alpha   80.45556725
_cell_angle_beta   70.58442255
_cell_angle_gamma   60.07885471
_symmetry_Int_Tables_number   1
_chemical_formula_structural   Nb2Ni4O9
_chemical_formula_sum   'Nb16 Ni32 O72'
_cell_volume   1312.66767331
_cell_formula_units_Z   8
loop_
 _symmetry_equiv_pos_site_id
 _symmetry_equiv_pos_as_xyz
  1  'x, y, z'
loop_
 _atom_site_type_symbol
 _atom_site_label
 _atom_site_symmetry_multiplicity
 _atom_site_fract_x
 _atom_site_fract_y
 _atom_site_fract_z
 _atom_site_occupancy
  Nb  Nb0  1  0.98482100  0.72529200  0.35523700  1
  Nb  Nb1  1  0.45482500  0.69484500  0.35441400  1
  Nb  Nb2  1  0.29086500  0.22414400  0.64485700  1
  Nb  Nb3  1  0.05674800  0.69601300  0.14578000  1
  Nb  Nb4  1  0.68572200  0.72414400  0.85514300  1
  Nb  Nb5  1  0.28988800  0.72529200  0.64476300  1
  Nb  Nb6  1  0.68465100  0.22529200  0.85523700  1
  Nb  Nb7  1  0.55923900  0.19484500  0.14558600  1
  Nb  Nb8  1  0.48499000  0.22414400  0.35514300  1
  Nb  Nb9  1  0.24723800  0.69601300  0.85422000  1
  Nb  Nb10  1  0.85033000  0.69484500  0.64558600  1
  Nb  Nb11  1  0.85145800  0.19601300  0.64578000  1
  Nb  Nb12  1  0.09005800  0.22529200  0.14476300  1
  Nb  Nb13  1  0.59013300  0.72414400  0.14485700  1
  Nb  Nb14  1  0.24591600  0.19484500  0.85441400  1
  Nb  Nb15  1  0.95252800  0.19601300  0.35422000  1
  Ni  Ni16  1  0.81830300  0.88072300  0.99774400  1
  Ni  Ni17  1  0.90036600  0.87882600  0.81376000  1
  Ni  Ni18  1  0.30097400  0.88072300  0.00225600  1
  Ni  Ni19  1  0.32216600  0.04242500  0.31242300  1
  Ni  Ni20  1  0.05323000  0.38072300  0.49774400  1
  Ni  Ni21  1  0.97393000  0.05214100  0.00000000  1
  Ni  Ni22  1  0.72393000  0.55214100  0.50000000  1
  Ni  Ni23  1  0.46412600  0.37882600  0.68624000  1
  Ni  Ni24  1  0.47856500  0.04286900  0.00000000  1
  Ni  Ni25  1  0.23758300  0.04533500  0.49666100  1
  Ni  Ni26  1  0.63540900  0.04242500  0.68757700  1
  Ni  Ni27  1  0.46505400  0.87799800  0.68554500  1
  Ni  Ni28  1  0.30647300  0.38705400  0.00000000  1
  Ni  Ni29  1  0.72140200  0.37799800  0.18554500  1
  Ni  Ni30  1  0.22856500  0.54286900  0.50000000  1
  Ni  Ni31  1  0.22080800  0.87882600  0.18624000  1
  Ni  Ni32  1  0.65694700  0.87799800  0.31445500  1
  Ni  Ni33  1  0.88468000  0.04281300  0.18580800  1
  Ni  Ni34  1  0.82048800  0.54281300  0.31419200  1
  Ni  Ni35  1  0.07298600  0.54242500  0.81242300  1
  Ni  Ni36  1  0.81352600  0.37294800  0.00000000  1
  Ni  Ni37  1  0.71708300  0.04533500  0.50333900  1
  Ni  Ni38  1  0.56352600  0.87294800  0.50000000  1
  Ni  Ni39  1  0.97042200  0.54533500  0.99666100  1
  Ni  Ni40  1  0.56604700  0.38072300  0.50225600  1
  Ni  Ni41  1  0.90059900  0.37799800  0.81445500  1
  Ni  Ni42  1  0.38458900  0.54242500  0.18757700  1
  Ni  Ni43  1  0.07250700  0.04281300  0.81419200  1
  Ni  Ni44  1  0.48424300  0.54533500  0.00333900  1
  Ni  Ni45  1  0.15704800  0.37882600  0.31376000  1
  Ni  Ni46  1  0.05647300  0.88705400  0.50000000  1
  Ni  Ni47  1  0.63669900  0.54281300  0.68580800  1
  O  O48  1  0.51123000  0.21145100  0.59705100  1
  O  O49  1  0.51206000  0.38452400  0.92716800  1
  O  O50  1  0.17627100  0.04993400  0.91779800  1
  O  O51  1  0.52277300  0.06070000  0.24815800  1
  O  O52  1  0.77379500  0.04993400  0.08220200  1
  O  O53  1  0.02872600  0.20972300  0.57155800  1
  O  O54  1  0.26847500  0.85696800  0.74956300  1
  O  O55  1  0.61683300  0.21273600  0.75184400  1
  O  O56  1  0.35028400  0.70972300  0.92844200  1
  O  O57  1  0.84235900  0.04838600  0.58857300  1
  O  O58  1  0.11947800  0.21069300  0.74911400  1
  O  O59  1  0.52093000  0.56070000  0.25184200  1
  O  O60  1  0.76155100  0.20972300  0.42844200  1
  O  O61  1  0.43026800  0.71145100  0.09705100  1
  O  O62  1  0.43399800  0.21229800  0.07680600  1
  O  O63  1  0.51214200  0.71415800  0.59367900  1
  O  O64  1  0.43749100  0.37888200  0.42656900  1
  O  O65  1  0.60599700  0.54993400  0.41779800  1
  O  O66  1  0.02739100  0.88007000  0.90425300  1
  O  O67  1  0.59987500  0.03999600  0.41624600  1
  O  O68  1  0.68164400  0.38007000  0.59574700  1
  O  O69  1  0.37650800  0.85617600  0.24905000  1
  O  O70  1  0.02400800  0.37809000  0.90422000  1
  O  O71  1  0.84406900  0.54993400  0.58220200  1
  O  O72  1  0.76612200  0.53999600  0.08375400  1
  O  O73  1  0.61859200  0.71069300  0.75088600  1
  O  O74  1  0.91837000  0.56070000  0.74815800  1
  O  O75  1  0.27731800  0.21145100  0.40294900  1
  O  O76  1  0.91669800  0.06402400  0.75076600  1
  O  O77  1  0.02689800  0.71229800  0.57680600  1
  O  O78  1  0.18362800  0.37888200  0.57343100  1
  O  O79  1  0.66983000  0.21069300  0.25088600  1
  O  O80  1  0.85582100  0.21415800  0.90632100  1
  O  O81  1  0.92624700  0.88452400  0.42716800  1
  O  O82  1  0.26543900  0.04097100  0.08515700  1
  O  O83  1  0.67071600  0.71069300  0.24911400  1
  O  O84  1  0.41652800  0.06070000  0.75184200  1
  O  O85  1  0.35843300  0.54097100  0.58515700  1
  O  O86  1  0.01851300  0.56402400  0.25076600  1
  O  O87  1  0.93002100  0.21415800  0.09367900  1
  O  O88  1  0.10925500  0.04838600  0.41142700  1
  O  O89  1  0.76731600  0.85617600  0.75095000  1
  O  O90  1  0.01927800  0.06402400  0.24923400  1
  O  O91  1  0.87455700  0.85696800  0.25043700  1
  O  O92  1  0.26080400  0.71229800  0.42319400  1
  O  O93  1  0.93828600  0.38007000  0.40425300  1
  O  O94  1  0.09253900  0.88007000  0.09574700  1
  O  O95  1  0.87499400  0.35696800  0.24956300  1
  O  O96  1  0.59790200  0.37809000  0.09578000  1
  O  O97  1  0.36012900  0.03999600  0.58375400  1
  O  O98  1  0.77370000  0.71415800  0.40632100  1
  O  O99  1  0.18922800  0.88452400  0.57283200  1
  O  O100  1  0.16858600  0.71273600  0.25184400  1
  O  O101  1  0.44368200  0.87809000  0.40422000  1
  O  O102  1  0.67822800  0.87809000  0.59578000  1
  O  O103  1  0.17043100  0.21273600  0.24815600  1
  O  O104  1  0.69388300  0.53999600  0.91624600  1
  O  O105  1  0.50705900  0.87888200  0.92656900  1
  O  O106  1  0.18093200  0.54838600  0.91142700  1
  O  O107  1  0.26826600  0.35617600  0.74905000  1
  O  O108  1  0.61406000  0.87888200  0.07343100  1
  O  O109  1  0.76803800  0.35696800  0.75043700  1
  O  O110  1  0.10059500  0.54097100  0.41484300  1
  O  O111  1  0.37555800  0.35617600  0.25095000  1
  O  O112  1  0.41746400  0.56402400  0.74923400  1
  O  O113  1  0.85828100  0.71145100  0.90294900  1
  O  O114  1  0.10341600  0.38452400  0.07283200  1
  O  O115  1  0.11867800  0.71273600  0.74815600  1
  O  O116  1  0.69359000  0.04097100  0.91484300  1
  O  O117  1  0.27068100  0.54838600  0.08857300  1
  O  O118  1  0.35370500  0.21229800  0.92319400  1
  O  O119  1  0.93999300  0.70972300  0.07155800  1
