# generated using pymatgen
data_Cr2NiO4
_symmetry_space_group_name_H-M   'P 1'
_cell_length_a   5.94522398
_cell_length_b   6.01420550
_cell_length_c   5.98732972
_cell_angle_alpha   59.99881371
_cell_angle_beta   90.10557082
_cell_angle_gamma   119.69490268
_symmetry_Int_Tables_number   1
_chemical_formula_structural   Cr2NiO4
_chemical_formula_sum   'Cr4 Ni2 O8'
_cell_volume   152.20727434
_cell_formula_units_Z   2
loop_
 _symmetry_equiv_pos_site_id
 _symmetry_equiv_pos_as_xyz
  1  'x, y, z'
loop_
 _atom_site_type_symbol
 _atom_site_label
 _atom_site_symmetry_multiplicity
 _atom_site_fract_x
 _atom_site_fract_y
 _atom_site_fract_z
 _atom_site_occupancy
  Cr  Cr0  1  0.50026900  0.00019400  0.00062500  1
  Cr  Cr1  1  0.00099000  0.50189300  0.49838800  1
  Cr  Cr2  1  0.99923200  0.49843900  0.99998800  1
  Cr  Cr3  1  0.99994000  0.00041300  0.00052200  1
  Ni  Ni4  1  0.62550700  0.75008800  0.62959000  1
  Ni  Ni5  1  0.37472400  0.24901000  0.37942500  1
  O  O6  1  0.75662100  0.47310300  0.75955700  1
  O  O7  1  0.76536100  0.03204900  0.75622100  1
  O  O8  1  0.76120900  0.02192800  0.21883300  1
  O  O9  1  0.24296200  0.52594300  0.23423500  1
  O  O10  1  0.78321800  0.52640300  0.23328900  1
  O  O11  1  0.23932500  0.97819400  0.24049800  1
  O  O12  1  0.21687100  0.47365700  0.76012800  1
  O  O13  1  0.23377100  0.96868700  0.78870400  1
