# generated using pymatgen
data_NaV2O5
_symmetry_space_group_name_H-M   'P 1'
_cell_length_a   15.30721202
_cell_length_b   12.06934558
_cell_length_c   10.73154582
_cell_angle_alpha   84.12301417
_cell_angle_beta   51.65877682
_cell_angle_gamma   44.21820902
_symmetry_Int_Tables_number   1
_chemical_formula_structural   NaV2O5
_chemical_formula_sum   'Na8 V16 O40'
_cell_volume   846.03569918
_cell_formula_units_Z   8
loop_
 _symmetry_equiv_pos_site_id
 _symmetry_equiv_pos_as_xyz
  1  'x, y, z'
loop_
 _atom_site_type_symbol
 _atom_site_label
 _atom_site_symmetry_multiplicity
 _atom_site_fract_x
 _atom_site_fract_y
 _atom_site_fract_z
 _atom_site_occupancy
  Na  Na0  1  0.06129300  0.43870700  0.06129300  1
  Na  Na1  1  0.12710000  0.87290000  0.12710000  1
  Na  Na2  1  0.87673200  0.12326800  0.87673200  1
  Na  Na3  1  0.56129300  0.93870700  0.56129300  1
  Na  Na4  1  0.37714500  0.62285500  0.37714500  1
  Na  Na5  1  0.81125200  0.68874800  0.81125200  1
  Na  Na6  1  0.31125200  0.18874800  0.31125200  1
  Na  Na7  1  0.62665900  0.37334100  0.62665900  1
  V  V8  1  0.67014100  0.17986900  0.31940100  1
  V  V9  1  0.06939100  0.08055900  0.42024800  1
  V  V10  1  0.57019800  0.57975200  0.91944100  1
  V  V11  1  0.31940100  0.83058900  0.67014100  1
  V  V12  1  0.42024800  0.42980200  0.06939100  1
  V  V13  1  0.16941100  0.68059900  0.82013100  1
  V  V14  1  0.01797000  0.63563900  0.36436100  1
  V  V15  1  0.26727000  0.38661200  0.61338800  1
  V  V16  1  0.61338800  0.73273000  0.26727000  1
  V  V17  1  0.52024800  0.12797400  0.87202600  1
  V  V18  1  0.77069000  0.87706400  0.12293600  1
  V  V19  1  0.82013100  0.32985900  0.16941100  1
  V  V20  1  0.91944100  0.93060900  0.57019800  1
  V  V21  1  0.12293600  0.22931000  0.77069000  1
  V  V22  1  0.87202600  0.47975200  0.52024800  1
  V  V23  1  0.36436100  0.98203000  0.01797000  1
  O  O24  1  0.14148600  0.98954800  0.51010500  1
  O  O25  1  0.79934500  0.56884200  0.43115800  1
  O  O26  1  0.43115800  0.20065500  0.79934500  1
  O  O27  1  0.01045200  0.85851400  0.64113900  1
  O  O28  1  0.97574000  0.52011400  0.47988600  1
  O  O29  1  0.75936400  0.10964500  0.39210900  1
  O  O30  1  0.62632000  0.19489300  0.80510700  1
  O  O31  1  0.17435300  0.45540400  0.54459600  1
  O  O32  1  0.12591000  0.69639600  0.30360400  1
  O  O33  1  0.04987900  0.31806100  0.68193900  1
  O  O34  1  0.87639900  0.94454900  0.05545100  1
  O  O35  1  0.80872800  0.87064800  0.63760700  1
  O  O36  1  0.80510700  0.37368000  0.62632000  1
  O  O37  1  0.22625000  0.27077100  0.72922900  1
  O  O38  1  0.55331200  0.62429300  0.37570700  1
  O  O39  1  0.71427500  0.28572500  0.21094700  1
  O  O40  1  0.30360400  0.87409000  0.12591000  1
  O  O41  1  0.39210900  0.73888100  0.75936400  1
  O  O42  1  0.46398600  0.53601400  0.96130200  1
  O  O43  1  0.12935200  0.19127200  0.31698400  1
  O  O44  1  0.05928100  0.61994800  0.88701900  1
  O  O45  1  0.05545100  0.12360100  0.87639900  1
  O  O46  1  0.54459600  0.82564700  0.17435300  1
  O  O47  1  0.68193900  0.95012100  0.04987900  1
  O  O48  1  0.56624900  0.11298100  0.38005200  1
  O  O49  1  0.31698400  0.36239300  0.12935200  1
  O  O50  1  0.21094700  0.78905300  0.71427500  1
  O  O51  1  0.89035500  0.24063600  0.26111900  1
  O  O52  1  0.63760700  0.68301600  0.80872800  1
  O  O53  1  0.47988600  0.02426000  0.97574000  1
  O  O54  1  0.26111900  0.60789100  0.89035500  1
  O  O55  1  0.64113900  0.48989500  0.01045200  1
  O  O56  1  0.92529100  0.70470700  0.29529300  1
  O  O57  1  0.38005200  0.94071900  0.56624900  1
  O  O58  1  0.96130200  0.03869800  0.46398600  1
  O  O59  1  0.88701900  0.43375100  0.05928100  1
  O  O60  1  0.29529300  0.07470900  0.92529100  1
  O  O61  1  0.72922900  0.77375000  0.22625000  1
  O  O62  1  0.51010500  0.35886100  0.14148600  1
  O  O63  1  0.37570700  0.44668800  0.55331200  1
