# generated using pymatgen
data_Mg(FeO2)2
_symmetry_space_group_name_H-M   'P 1'
_cell_length_a   6.04112815
_cell_length_b   6.04112805
_cell_length_c   6.04113238
_cell_angle_alpha   120.01835614
_cell_angle_beta   120.01760121
_cell_angle_gamma   89.96893296
_symmetry_Int_Tables_number   1
_chemical_formula_structural   Mg(FeO2)2
_chemical_formula_sum   'Mg2 Fe4 O8'
_cell_volume   155.85512036
_cell_formula_units_Z   2
loop_
 _symmetry_equiv_pos_site_id
 _symmetry_equiv_pos_as_xyz
  1  'x, y, z'
loop_
 _atom_site_type_symbol
 _atom_site_label
 _atom_site_symmetry_multiplicity
 _atom_site_fract_x
 _atom_site_fract_y
 _atom_site_fract_z
 _atom_site_occupancy
  Mg  Mg0  1  0.37500000  0.12500000  0.25000000  1
  Mg  Mg1  1  0.62500000  0.87500000  0.75000000  1
  Fe  Fe2  1  0.00000000  0.50000100  0.00000000  1
  Fe  Fe3  1  0.00000000  0.99999900  0.49999900  1
  Fe  Fe4  1  0.00000000  0.49999900  0.49999900  1
  Fe  Fe5  1  0.49999900  0.50000100  0.00000100  1
  O  O6  1  0.21936500  0.73978400  0.47957900  1
  O  O7  1  0.23979600  0.26021500  0.97958000  1
  O  O8  1  0.23978400  0.71936600  0.97958200  1
  O  O9  1  0.23978400  0.26020200  0.52041900  1
  O  O10  1  0.76021600  0.28063300  0.02041800  1
  O  O11  1  0.76021600  0.73979800  0.47958200  1
  O  O12  1  0.78063500  0.26021500  0.52042100  1
  O  O13  1  0.76020500  0.73978500  0.02042000  1
