# generated using pymatgen
data_Ba2FeMoO6
_symmetry_space_group_name_H-M   'P 1'
_cell_length_a   5.78234494
_cell_length_b   5.79912065
_cell_length_c   10.02277212
_cell_angle_alpha   89.88158347
_cell_angle_beta   106.77982693
_cell_angle_gamma   119.90639363
_symmetry_Int_Tables_number   1
_chemical_formula_structural   Ba2FeMoO6
_chemical_formula_sum   'Ba4 Fe2 Mo2 O12'
_cell_volume   274.82518744
_cell_formula_units_Z   2
loop_
 _symmetry_equiv_pos_site_id
 _symmetry_equiv_pos_as_xyz
  1  'x, y, z'
loop_
 _atom_site_type_symbol
 _atom_site_label
 _atom_site_symmetry_multiplicity
 _atom_site_fract_x
 _atom_site_fract_y
 _atom_site_fract_z
 _atom_site_occupancy
  Ba  Ba0  1  0.74755400  0.37543800  0.12461500  1
  Ba  Ba1  1  0.75288900  0.87524400  0.62571900  1
  Ba  Ba2  1  0.24733700  0.62446000  0.87543900  1
  Ba  Ba3  1  0.25199700  0.12498900  0.37429800  1
  Fe  Fe4  1  0.98918300  0.49943900  0.49988900  1
  Fe  Fe5  1  0.00803400  0.00003100  0.99995900  1
  Mo  Mo6  1  0.49926900  0.24880900  0.74908800  1
  Mo  Mo7  1  0.50134800  0.75112300  0.25090400  1
  O  O8  1  0.74538900  0.62614700  0.87548200  1
  O  O9  1  0.75623400  0.12552400  0.37532500  1
  O  O10  1  0.24369500  0.37379200  0.12446200  1
  O  O11  1  0.25551800  0.87467000  0.62476400  1
  O  O12  1  0.75229600  0.37346300  0.62576800  1
  O  O13  1  0.73550600  0.86997500  0.12932100  1
  O  O14  1  0.26519900  0.37110900  0.62926500  1
  O  O15  1  0.24680700  0.87409000  0.12628800  1
  O  O16  1  0.24715400  0.12575000  0.87395000  1
  O  O17  1  0.26492200  0.62964100  0.37057000  1
  O  O18  1  0.73592000  0.12939700  0.87082900  1
  O  O19  1  0.75374900  0.62691100  0.37406600  1
