# generated using pymatgen
data_Co
_symmetry_space_group_name_H-M   'P 1'
_cell_length_a   7.86521800
_cell_length_b   11.20584200
_cell_length_c   11.20584200
_cell_angle_alpha   90.00000000
_cell_angle_beta   90.00000000
_cell_angle_gamma   90.00000000
_symmetry_Int_Tables_number   1
_chemical_formula_structural   Co
_chemical_formula_sum   Co58
_cell_volume   987.64246307
_cell_formula_units_Z   58
loop_
 _symmetry_equiv_pos_site_id
 _symmetry_equiv_pos_as_xyz
  1  'x, y, z'
loop_
 _atom_site_type_symbol
 _atom_site_label
 _atom_site_symmetry_multiplicity
 _atom_site_fract_x
 _atom_site_fract_y
 _atom_site_fract_z
 _atom_site_occupancy
  Co  Co0  1  0.33727700  0.82510100  0.83825500  1.0
  Co  Co1  1  0.33727700  0.17489900  0.16174500  1.0
  Co  Co2  1  0.33727700  0.66174500  0.32510100  1.0
  Co  Co3  1  0.33727700  0.33825500  0.67489900  1.0
  Co  Co4  1  0.66272300  0.83825500  0.82510100  1.0
  Co  Co5  1  0.66272300  0.32510100  0.66174500  1.0
  Co  Co6  1  0.66272300  0.67489900  0.33825500  1.0
  Co  Co7  1  0.66272300  0.16174500  0.17489900  1.0
  Co  Co8  1  0.66272300  0.67489900  0.66174500  1.0
  Co  Co9  1  0.66272300  0.32510100  0.33825500  1.0
  Co  Co10  1  0.66272300  0.83825500  0.17489900  1.0
  Co  Co11  1  0.66272300  0.16174500  0.82510100  1.0
  Co  Co12  1  0.33727700  0.66174500  0.67489900  1.0
  Co  Co13  1  0.33727700  0.17489900  0.83825500  1.0
  Co  Co14  1  0.33727700  0.82510100  0.16174500  1.0
  Co  Co15  1  0.33727700  0.33825500  0.32510100  1.0
  Co  Co16  1  0.30266000  0.60903200  0.10903200  1.0
  Co  Co17  1  0.30266000  0.39096800  0.89096800  1.0
  Co  Co18  1  0.30266000  0.39096800  0.10903200  1.0
  Co  Co19  1  0.30266000  0.60903200  0.89096800  1.0
  Co  Co20  1  0.69734000  0.10903200  0.60903200  1.0
  Co  Co21  1  0.69734000  0.10903200  0.39096800  1.0
  Co  Co22  1  0.69734000  0.89096800  0.60903200  1.0
  Co  Co23  1  0.69734000  0.89096800  0.39096800  1.0
  Co  Co24  1  0.74671100  0.61360700  0.11360700  1.0
  Co  Co25  1  0.74671100  0.38639300  0.88639300  1.0
  Co  Co26  1  0.74671100  0.38639300  0.11360700  1.0
  Co  Co27  1  0.74671100  0.61360700  0.88639300  1.0
  Co  Co28  1  0.25328900  0.11360700  0.61360700  1.0
  Co  Co29  1  0.25328900  0.11360700  0.38639300  1.0
  Co  Co30  1  0.25328900  0.88639300  0.61360700  1.0
  Co  Co31  1  0.25328900  0.88639300  0.38639300  1.0
  Co  Co32  1  0.02814900  0.50000000  0.16387400  1.0
  Co  Co33  1  0.02814900  0.50000000  0.83612600  1.0
  Co  Co34  1  0.02814900  0.33612600  0.00000000  1.0
  Co  Co35  1  0.02814900  0.66387400  0.00000000  1.0
  Co  Co36  1  0.97185100  0.16387400  0.50000000  1.0
  Co  Co37  1  0.97185100  1.00000000  0.33612600  1.0
  Co  Co38  1  0.97185100  1.00000000  0.66387400  1.0
  Co  Co39  1  0.97185100  0.83612600  0.50000000  1.0
  Co  Co40  1  0.52511100  0.50000000  0.22478400  1.0
  Co  Co41  1  0.52511100  0.50000000  0.77521600  1.0
  Co  Co42  1  0.52511100  0.27521600  0.00000000  1.0
  Co  Co43  1  0.52511100  0.72478400  0.00000000  1.0
  Co  Co44  1  0.47488900  0.22478400  0.50000000  1.0
  Co  Co45  1  0.47488900  1.00000000  0.27521600  1.0
  Co  Co46  1  0.47488900  1.00000000  0.72478400  1.0
  Co  Co47  1  0.47488900  0.77521600  0.50000000  1.0
  Co  Co48  1  0.11094300  0.50000000  0.61009200  1.0
  Co  Co49  1  0.11094300  0.50000000  0.38990800  1.0
  Co  Co50  1  0.11094300  0.88990800  0.00000000  1.0
  Co  Co51  1  0.11094300  0.11009200  0.00000000  1.0
  Co  Co52  1  0.88905700  0.61009200  0.50000000  1.0
  Co  Co53  1  0.88905700  1.00000000  0.88990800  1.0
  Co  Co54  1  0.88905700  1.00000000  0.11009200  1.0
  Co  Co55  1  0.88905700  0.38990800  0.50000000  1.0
  Co  Co56  1  0.53164200  0.50000000  0.00000000  1.0
  Co  Co57  1  0.46835800  0.00000000  0.50000000  1.0
