# generated using pymatgen
data_CeNi
_symmetry_space_group_name_H-M   'P 1'
_cell_length_a   4.04272400
_cell_length_b   6.88936400
_cell_length_c   6.88936379
_cell_angle_alpha   120.00000100
_cell_angle_beta   90.00000000
_cell_angle_gamma   90.00000000
_symmetry_Int_Tables_number   1
_chemical_formula_structural   CeNi
_chemical_formula_sum   'Ce3 Ni3'
_cell_volume   166.17395998
_cell_formula_units_Z   3
loop_
 _symmetry_equiv_pos_site_id
 _symmetry_equiv_pos_as_xyz
  1  'x, y, z'
loop_
 _atom_site_type_symbol
 _atom_site_label
 _atom_site_symmetry_multiplicity
 _atom_site_fract_x
 _atom_site_fract_y
 _atom_site_fract_z
 _atom_site_occupancy
  Ce  Ce0  1  0.50000000  1.00000000  0.57632400  1.0
  Ce  Ce1  1  0.50000000  0.42367600  0.42367600  1.0
  Ce  Ce2  1  0.50000000  0.57632400  0.00000000  1.0
  Ni  Ni3  1  0.00000000  0.66666667  0.33333333  1.0
  Ni  Ni4  1  0.00000000  0.33333333  0.66666667  1.0
  Ni  Ni5  1  0.50000000  0.00000000  0.00000000  1.0
