# generated using pymatgen
data_Co
_symmetry_space_group_name_H-M   'P 1'
_cell_length_a   7.86001000
_cell_length_b   7.86000971
_cell_length_c   9.68637200
_cell_angle_alpha   90.00000000
_cell_angle_beta   90.00000000
_cell_angle_gamma   120.00000121
_symmetry_Int_Tables_number   1
_chemical_formula_structural   Co
_chemical_formula_sum   Co46
_cell_volume   518.24837775
_cell_formula_units_Z   46
loop_
 _symmetry_equiv_pos_site_id
 _symmetry_equiv_pos_as_xyz
  1  'x, y, z'
loop_
 _atom_site_type_symbol
 _atom_site_label
 _atom_site_symmetry_multiplicity
 _atom_site_fract_x
 _atom_site_fract_y
 _atom_site_fract_z
 _atom_site_occupancy
  Co  Co0  1  0.00000000  0.00000000  0.64823700  1.0
  Co  Co1  1  0.67350700  0.83675300  0.52207000  1.0
  Co  Co2  1  0.81138300  0.18861800  0.77232800  1.0
  Co  Co3  1  0.99824700  0.49912400  0.90338300  1.0
  Co  Co4  1  0.18861700  0.37723400  0.27232800  1.0
  Co  Co5  1  0.50087700  0.00175400  0.90338300  1.0
  Co  Co6  1  0.32479500  0.16239700  0.27379000  1.0
  Co  Co7  1  0.00000000  0.00000000  0.14823700  1.0
  Co  Co8  1  0.50087700  0.49912400  0.90338300  1.0
  Co  Co9  1  0.51459300  0.02918600  0.15322100  1.0
  Co  Co10  1  0.16324600  0.83675300  0.52207000  1.0
  Co  Co11  1  0.00000000  0.00000000  0.89566800  1.0
  Co  Co12  1  0.82452400  0.17547600  0.52180200  1.0
  Co  Co13  1  0.16324600  0.32649200  0.52207000  1.0
  Co  Co14  1  0.64904800  0.82452400  0.02180200  1.0
  Co  Co15  1  0.17547600  0.82452400  0.02180200  1.0
  Co  Co16  1  0.66666667  0.33333333  0.61593900  1.0
  Co  Co17  1  0.17547600  0.35095200  0.02180200  1.0
  Co  Co18  1  0.32649300  0.16324700  0.02207000  1.0
  Co  Co19  1  0.97081300  0.48540600  0.15322100  1.0
  Co  Co20  1  0.48540700  0.51459400  0.65322100  1.0
  Co  Co21  1  0.49912300  0.99824600  0.40338300  1.0
  Co  Co22  1  0.35095200  0.17547600  0.52180200  1.0
  Co  Co23  1  0.37723500  0.18861800  0.77232800  1.0
  Co  Co24  1  0.48540700  0.97081400  0.65322100  1.0
  Co  Co25  1  0.83675400  0.67350800  0.02207000  1.0
  Co  Co26  1  0.49912300  0.50087600  0.40338300  1.0
  Co  Co27  1  0.16239800  0.83760300  0.77379000  1.0
  Co  Co28  1  0.66666667  0.33333333  0.32122400  1.0
  Co  Co29  1  0.83760200  0.16239700  0.27379000  1.0
  Co  Co30  1  0.02918700  0.51459400  0.65322100  1.0
  Co  Co31  1  0.33333333  0.66666667  0.82122400  1.0
  Co  Co32  1  0.51459300  0.48540600  0.15322100  1.0
  Co  Co33  1  0.82452400  0.64904800  0.52180200  1.0
  Co  Co34  1  0.16239800  0.32479600  0.77379000  1.0
  Co  Co35  1  0.83675400  0.16324700  0.02207000  1.0
  Co  Co36  1  0.33333333  0.66666667  0.11593900  1.0
  Co  Co37  1  0.33333333  0.66666667  0.51034600  1.0
  Co  Co38  1  0.18861700  0.81138200  0.27232800  1.0
  Co  Co39  1  0.83760200  0.67520400  0.27379000  1.0
  Co  Co40  1  0.62276500  0.81138200  0.27232800  1.0
  Co  Co41  1  0.00000000  0.00000000  0.39566800  1.0
  Co  Co42  1  0.67520500  0.83760300  0.77379000  1.0
  Co  Co43  1  0.66666667  0.33333333  0.01034600  1.0
  Co  Co44  1  0.81138300  0.62276600  0.77232800  1.0
  Co  Co45  1  0.00175300  0.50087600  0.40338300  1.0
