# generated using pymatgen
data_Fe
_symmetry_space_group_name_H-M   'P 1'
_cell_length_a   6.03952300
_cell_length_b   6.03945401
_cell_length_c   6.04112805
_cell_angle_alpha   119.99078635
_cell_angle_beta   119.99129198
_cell_angle_gamma   89.99997044
_symmetry_Int_Tables_number   1
_chemical_formula_structural   Fe
_chemical_formula_sum   Fe4
_cell_volume   155.85512038
_cell_formula_units_Z   4
loop_
 _symmetry_equiv_pos_site_id
 _symmetry_equiv_pos_as_xyz
  1  'x, y, z'
loop_
 _atom_site_type_symbol
 _atom_site_label
 _atom_site_symmetry_multiplicity
 _atom_site_fract_x
 _atom_site_fract_y
 _atom_site_fract_z
 _atom_site_occupancy
  Fe  Fe0  1  0.00000000  0.00000000  0.50000100  1.0
  Fe  Fe1  1  1.00000000  0.50000100  0.50000000  1.0
  Fe  Fe2  1  1.00000000  0.50000100  1.00000000  1.0
  Fe  Fe3  1  0.49999900  0.49999800  0.99999900  1.0
