# generated using pymatgen
data_Fe
_symmetry_space_group_name_H-M   'P 1'
_cell_length_a   6.40824347
_cell_length_b   6.40824347
_cell_length_c   6.40824321
_cell_angle_alpha   83.18913355
_cell_angle_beta   83.18913355
_cell_angle_gamma   83.18912451
_symmetry_Int_Tables_number   1
_chemical_formula_structural   Fe
_chemical_formula_sum   Fe17
_cell_volume   257.99487603
_cell_formula_units_Z   17
loop_
 _symmetry_equiv_pos_site_id
 _symmetry_equiv_pos_as_xyz
  1  'x, y, z'
loop_
 _atom_site_type_symbol
 _atom_site_label
 _atom_site_symmetry_multiplicity
 _atom_site_fract_x
 _atom_site_fract_y
 _atom_site_fract_z
 _atom_site_occupancy
  Fe  Fe0  1  0.00000000  0.00000000  0.50000000  1.0
  Fe  Fe1  1  0.00000000  0.50000000  1.00000000  1.0
  Fe  Fe2  1  0.50000000  0.00000000  0.00000000  1.0
  Fe  Fe3  1  0.70749800  0.29250200  1.00000000  1.0
  Fe  Fe4  1  0.29250200  0.00000000  0.70749800  1.0
  Fe  Fe5  1  0.00000000  0.70749800  0.29250200  1.0
  Fe  Fe6  1  0.70749800  0.00000000  0.29250200  1.0
  Fe  Fe7  1  0.00000000  0.29250200  0.70749800  1.0
  Fe  Fe8  1  0.29250200  0.70749800  0.00000000  1.0
  Fe  Fe9  1  0.65651900  0.65651900  0.15437500  1.0
  Fe  Fe10  1  0.65651900  0.15437500  0.65651900  1.0
  Fe  Fe11  1  0.15437500  0.65651900  0.65651900  1.0
  Fe  Fe12  1  0.34348100  0.34348100  0.84562500  1.0
  Fe  Fe13  1  0.34348100  0.84562500  0.34348100  1.0
  Fe  Fe14  1  0.84562500  0.34348100  0.34348100  1.0
  Fe  Fe15  1  0.09638800  0.09638800  0.09638800  1.0
  Fe  Fe16  1  0.90361200  0.90361200  0.90361200  1.0
