# generated using pymatgen
data_Fe
_symmetry_space_group_name_H-M   'P 1'
_cell_length_a   8.51637427
_cell_length_b   8.51637427
_cell_length_c   8.51637427
_cell_angle_alpha   60.00000000
_cell_angle_beta   60.00000000
_cell_angle_gamma   60.00000000
_symmetry_Int_Tables_number   1
_chemical_formula_structural   Fe
_chemical_formula_sum   Fe23
_cell_volume   436.76639853
_cell_formula_units_Z   23
loop_
 _symmetry_equiv_pos_site_id
 _symmetry_equiv_pos_as_xyz
  1  'x, y, z'
loop_
 _atom_site_type_symbol
 _atom_site_label
 _atom_site_symmetry_multiplicity
 _atom_site_fract_x
 _atom_site_fract_y
 _atom_site_fract_z
 _atom_site_occupancy
  Fe  Fe0  1  0.50000000  0.50000000  0.50000000  1.0
  Fe  Fe1  1  1.00000000  0.00000000  0.50000000  1.0
  Fe  Fe2  1  1.00000000  0.50000000  0.00000000  1.0
  Fe  Fe3  1  0.50000000  0.00000000  0.50000000  1.0
  Fe  Fe4  1  0.50000000  0.50000000  0.00000000  1.0
  Fe  Fe5  1  0.50000000  0.00000000  0.00000000  1.0
  Fe  Fe6  1  1.00000000  0.50000000  0.50000000  1.0
  Fe  Fe7  1  0.37807400  0.37807300  0.37807300  1.0
  Fe  Fe8  1  0.62192600  0.13422000  0.62192700  1.0
  Fe  Fe9  1  0.62192600  0.62192700  0.13422000  1.0
  Fe  Fe10  1  0.13421900  0.62192700  0.62192700  1.0
  Fe  Fe11  1  0.37807400  0.37807300  0.86578000  1.0
  Fe  Fe12  1  0.86578100  0.37807300  0.37807300  1.0
  Fe  Fe13  1  0.37807400  0.86578000  0.37807300  1.0
  Fe  Fe14  1  0.62192600  0.62192700  0.62192700  1.0
  Fe  Fe15  1  0.17603300  0.17603400  0.17603400  1.0
  Fe  Fe16  1  0.82396700  0.52810100  0.82396600  1.0
  Fe  Fe17  1  0.82396700  0.82396600  0.52810100  1.0
  Fe  Fe18  1  0.52810200  0.82396600  0.82396600  1.0
  Fe  Fe19  1  0.17603300  0.17603400  0.47189900  1.0
  Fe  Fe20  1  0.47189800  0.17603400  0.17603400  1.0
  Fe  Fe21  1  0.17603300  0.47189900  0.17603400  1.0
  Fe  Fe22  1  0.82396700  0.82396600  0.82396600  1.0
