# generated using pymatgen
data_Mn
_symmetry_space_group_name_H-M   'P 1'
_cell_length_a   5.05241411
_cell_length_b   5.05241435
_cell_length_c   5.49371145
_cell_angle_alpha   62.62347109
_cell_angle_beta   62.62346625
_cell_angle_gamma   59.99999525
_symmetry_Int_Tables_number   1
_chemical_formula_structural   Mn
_chemical_formula_sum   Mn2
_cell_volume   102.91461463
_cell_formula_units_Z   2
loop_
 _symmetry_equiv_pos_site_id
 _symmetry_equiv_pos_as_xyz
  1  'x, y, z'
loop_
 _atom_site_type_symbol
 _atom_site_label
 _atom_site_symmetry_multiplicity
 _atom_site_fract_x
 _atom_site_fract_y
 _atom_site_fract_z
 _atom_site_occupancy
  Mn  Mn0  1  0.34101700  0.34101700  0.97694900  1.0
  Mn  Mn1  1  0.65898300  0.65898300  0.02305100  1.0
