# generated using pymatgen
data_PrCr
_symmetry_space_group_name_H-M   'P 1'
_cell_length_a   6.10808800
_cell_length_b   6.24277600
_cell_length_c   13.22318000
_cell_angle_alpha   90.00000000
_cell_angle_beta   90.00000000
_cell_angle_gamma   90.00000000
_symmetry_Int_Tables_number   1
_chemical_formula_structural   PrCr
_chemical_formula_sum   'Pr4 Cr4'
_cell_volume   504.21869871
_cell_formula_units_Z   4
loop_
 _symmetry_equiv_pos_site_id
 _symmetry_equiv_pos_as_xyz
  1  'x, y, z'
loop_
 _atom_site_type_symbol
 _atom_site_label
 _atom_site_symmetry_multiplicity
 _atom_site_fract_x
 _atom_site_fract_y
 _atom_site_fract_z
 _atom_site_occupancy
  Pr  Pr0  1  0.25000000  0.50440000  0.30776700  1.0
  Pr  Pr1  1  0.75000000  0.49560000  0.69223300  1.0
  Pr  Pr2  1  0.25000000  0.00440000  0.69223300  1.0
  Pr  Pr3  1  0.75000000  0.99560000  0.30776700  1.0
  Cr  Cr4  1  0.00000000  0.75000000  0.90757000  1.0
  Cr  Cr5  1  0.00000000  0.25000000  0.09243000  1.0
  Cr  Cr6  1  0.50000000  0.25000000  0.09243000  1.0
  Cr  Cr7  1  0.50000000  0.75000000  0.90757000  1.0
