# generated using pymatgen
data_Rh
_symmetry_space_group_name_H-M   'P 1'
_cell_length_a   5.77937600
_cell_length_b   8.37377700
_cell_length_c   13.69059700
_cell_angle_alpha   90.00000000
_cell_angle_beta   90.00000000
_cell_angle_gamma   90.00000000
_symmetry_Int_Tables_number   1
_chemical_formula_structural   Rh
_chemical_formula_sum   Rh8
_cell_volume   662.55925966
_cell_formula_units_Z   8
loop_
 _symmetry_equiv_pos_site_id
 _symmetry_equiv_pos_as_xyz
  1  'x, y, z'
loop_
 _atom_site_type_symbol
 _atom_site_label
 _atom_site_symmetry_multiplicity
 _atom_site_fract_x
 _atom_site_fract_y
 _atom_site_fract_z
 _atom_site_occupancy
  Rh  Rh0  1  0.37500200  0.03361800  0.09151000  1.0
  Rh  Rh1  1  0.62499800  0.96638200  0.90849000  1.0
  Rh  Rh2  1  0.62499800  0.96638200  0.59151000  1.0
  Rh  Rh3  1  0.62499800  0.53361800  0.40849000  1.0
  Rh  Rh4  1  0.37500200  0.03361800  0.40849000  1.0
  Rh  Rh5  1  0.37500200  0.46638200  0.59151000  1.0
  Rh  Rh6  1  0.37500200  0.46638200  0.90849000  1.0
  Rh  Rh7  1  0.62499800  0.53361800  0.09151000  1.0
