# generated using pymatgen
data_Co
_symmetry_space_group_name_H-M   'P 1'
_cell_length_a   3.39804100
_cell_length_b   6.55560181
_cell_length_c   9.95464355
_cell_angle_alpha   83.90226792
_cell_angle_beta   84.30360190
_cell_angle_gamma   89.14622167
_symmetry_Int_Tables_number   1
_chemical_formula_structural   Co
_chemical_formula_sum   Co2
_cell_volume   219.40604675
_cell_formula_units_Z   2
loop_
 _symmetry_equiv_pos_site_id
 _symmetry_equiv_pos_as_xyz
  1  'x, y, z'
loop_
 _atom_site_type_symbol
 _atom_site_label
 _atom_site_symmetry_multiplicity
 _atom_site_fract_x
 _atom_site_fract_y
 _atom_site_fract_z
 _atom_site_occupancy
  Co  Co0  1  0.19158500  0.61547400  0.49219900  1.0
  Co  Co1  1  0.17765800  0.14631300  0.48640300  1.0
