# generated using pymatgen
data_Nb
_symmetry_space_group_name_H-M   'P 1'
_cell_length_a   4.14390300
_cell_length_b   12.64543700
_cell_length_c   12.64543700
_cell_angle_alpha   90.00000000
_cell_angle_beta   90.00000000
_cell_angle_gamma   90.00000000
_symmetry_Int_Tables_number   1
_chemical_formula_structural   Nb
_chemical_formula_sum   Nb10
_cell_volume   662.63941577
_cell_formula_units_Z   10
loop_
 _symmetry_equiv_pos_site_id
 _symmetry_equiv_pos_as_xyz
  1  'x, y, z'
loop_
 _atom_site_type_symbol
 _atom_site_label
 _atom_site_symmetry_multiplicity
 _atom_site_fract_x
 _atom_site_fract_y
 _atom_site_fract_z
 _atom_site_occupancy
  Nb  Nb0  1  0.67161000  1.00000000  0.50000000  1.0
  Nb  Nb1  1  0.67161000  0.50000000  0.00000000  1.0
  Nb  Nb2  1  0.67733000  0.79173200  0.92422200  1.0
  Nb  Nb3  1  0.67733000  0.20826800  0.07577800  1.0
  Nb  Nb4  1  0.67733000  0.07577800  0.79173200  1.0
  Nb  Nb5  1  0.67733000  0.92422200  0.20826800  1.0
  Nb  Nb6  1  0.67733000  0.57577800  0.70826800  1.0
  Nb  Nb7  1  0.67733000  0.70826800  0.42422200  1.0
  Nb  Nb8  1  0.67733000  0.29173200  0.57577800  1.0
  Nb  Nb9  1  0.67733000  0.42422200  0.29173200  1.0
