# generated using pymatgen
data_Ir
_symmetry_space_group_name_H-M   'P 1'
_cell_length_a   3.98954600
_cell_length_b   6.59133300
_cell_length_c   7.45097600
_cell_angle_alpha   90.00000000
_cell_angle_beta   90.00000000
_cell_angle_gamma   90.00000000
_symmetry_Int_Tables_number   1
_chemical_formula_structural   Ir
_chemical_formula_sum   Ir4
_cell_volume   195.93404054
_cell_formula_units_Z   4
loop_
 _symmetry_equiv_pos_site_id
 _symmetry_equiv_pos_as_xyz
  1  'x, y, z'
loop_
 _atom_site_type_symbol
 _atom_site_label
 _atom_site_symmetry_multiplicity
 _atom_site_fract_x
 _atom_site_fract_y
 _atom_site_fract_z
 _atom_site_occupancy
  Ir  Ir0  1  0.25000000  0.15197500  0.93495300  1.0
  Ir  Ir1  1  0.25000000  0.65197500  0.56504700  1.0
  Ir  Ir2  1  0.75000000  0.84802500  0.06504700  1.0
  Ir  Ir3  1  0.75000000  0.34802500  0.43495300  1.0
