# generated using pymatgen
data_ErPd
_symmetry_space_group_name_H-M   'P 1'
_cell_length_a   3.78429300
_cell_length_b   7.73649600
_cell_length_c   7.73649594
_cell_angle_alpha   120.00000027
_cell_angle_beta   90.00000000
_cell_angle_gamma   90.00000000
_symmetry_Int_Tables_number   1
_chemical_formula_structural   ErPd
_chemical_formula_sum   'Er3 Pd3'
_cell_volume   196.15708200
_cell_formula_units_Z   3
loop_
 _symmetry_equiv_pos_site_id
 _symmetry_equiv_pos_as_xyz
  1  'x, y, z'
loop_
 _atom_site_type_symbol
 _atom_site_label
 _atom_site_symmetry_multiplicity
 _atom_site_fract_x
 _atom_site_fract_y
 _atom_site_fract_z
 _atom_site_occupancy
  Er  Er0  1  0.50000000  0.59432100  0.59432100  1.0
  Er  Er1  1  0.50000000  0.40567900  0.00000000  1.0
  Er  Er2  1  0.50000000  0.00000000  0.40567900  1.0
  Pd  Pd3  1  0.50000000  0.00000000  0.00000000  1.0
  Pd  Pd4  1  0.00000000  0.33333333  0.66666667  1.0
  Pd  Pd5  1  1.00000000  0.66666667  0.33333333  1.0
