# generated using pymatgen
data_VNi
_symmetry_space_group_name_H-M   'P 1'
_cell_length_a   6.63181000
_cell_length_b   8.42605500
_cell_length_c   9.51050316
_cell_angle_alpha   90.00000000
_cell_angle_beta   100.09314766
_cell_angle_gamma   90.00000000
_symmetry_Int_Tables_number   1
_chemical_formula_structural   VNi
_chemical_formula_sum   'V8 Ni8'
_cell_volume   523.22228249
_cell_formula_units_Z   8
loop_
 _symmetry_equiv_pos_site_id
 _symmetry_equiv_pos_as_xyz
  1  'x, y, z'
loop_
 _atom_site_type_symbol
 _atom_site_label
 _atom_site_symmetry_multiplicity
 _atom_site_fract_x
 _atom_site_fract_y
 _atom_site_fract_z
 _atom_site_occupancy
  V  V0  1  0.80496900  0.51936500  0.68810100  1.0
  V  V1  1  0.19503100  0.01936500  0.81189900  1.0
  V  V2  1  0.19503100  0.48063500  0.31189900  1.0
  V  V3  1  0.80496900  0.98063500  0.18810100  1.0
  V  V4  1  0.63749000  0.25973000  0.96872200  1.0
  V  V5  1  0.36251000  0.75973000  0.53127800  1.0
  V  V6  1  0.36251000  0.74027000  0.03127800  1.0
  V  V7  1  0.63749000  0.24027000  0.46872200  1.0
  Ni  Ni8  1  0.69706200  0.88717600  0.82143500  1.0
  Ni  Ni9  1  0.30293800  0.38717600  0.67856500  1.0
  Ni  Ni10  1  0.30293800  0.11282400  0.17856500  1.0
  Ni  Ni11  1  0.69706200  0.61282400  0.32143500  1.0
  Ni  Ni12  1  0.85370500  0.62112400  0.03743200  1.0
  Ni  Ni13  1  0.14629500  0.12112400  0.46256800  1.0
  Ni  Ni14  1  0.14629500  0.37887600  0.96256800  1.0
  Ni  Ni15  1  0.85370500  0.87887600  0.53743200  1.0
