# generated using pymatgen
data_FeNi3
_symmetry_space_group_name_H-M   'P 1'
_cell_length_a   4.05514500
_cell_length_b   4.36253400
_cell_length_c   5.00416100
_cell_angle_alpha   90.00000000
_cell_angle_beta   90.00000000
_cell_angle_gamma   90.00000000
_symmetry_Int_Tables_number   1
_chemical_formula_structural   FeNi3
_chemical_formula_sum   'Fe2 Ni6'
_cell_volume   88.52715072
_cell_formula_units_Z   2
loop_
 _symmetry_equiv_pos_site_id
 _symmetry_equiv_pos_as_xyz
  1  'x, y, z'
loop_
 _atom_site_type_symbol
 _atom_site_label
 _atom_site_symmetry_multiplicity
 _atom_site_fract_x
 _atom_site_fract_y
 _atom_site_fract_z
 _atom_site_occupancy
  Fe  Fe0  1  0.50000000  0.66615600  0.50000000  1.0
  Fe  Fe1  1  0.00000000  0.33384400  0.00000000  1.0
  Ni  Ni2  1  0.00000000  0.33013400  0.50000000  1.0
  Ni  Ni3  1  0.50000000  0.66986600  0.00000000  1.0
  Ni  Ni4  1  0.50000000  0.16655400  0.74794900  1.0
  Ni  Ni5  1  0.00000000  0.83344600  0.24794900  1.0
  Ni  Ni6  1  0.00000000  0.83344600  0.75205100  1.0
  Ni  Ni7  1  0.50000000  0.16655400  0.25205100  1.0
