# generated using pymatgen
data_NdCo9
_symmetry_space_group_name_H-M   'P 1'
_cell_length_a   7.73820200
_cell_length_b   7.92021689
_cell_length_c   7.73820200
_cell_angle_alpha   119.24266073
_cell_angle_beta   89.99999999
_cell_angle_gamma   119.24266073
_symmetry_Int_Tables_number   1
_chemical_formula_structural   NdCo9
_chemical_formula_sum   'Nd2 Co18'
_cell_volume   342.88659370
_cell_formula_units_Z   2
loop_
 _symmetry_equiv_pos_site_id
 _symmetry_equiv_pos_as_xyz
  1  'x, y, z'
loop_
 _atom_site_type_symbol
 _atom_site_label
 _atom_site_symmetry_multiplicity
 _atom_site_fract_x
 _atom_site_fract_y
 _atom_site_fract_z
 _atom_site_occupancy
  Nd  Nd0  1  0.25000000  0.50000000  0.25000000  1.0
  Nd  Nd1  1  0.75000000  0.50000000  0.75000000  1.0
  Co  Co2  1  0.30970800  0.35998800  0.80970800  1.0
  Co  Co3  1  0.55028000  0.35998800  0.30970800  1.0
  Co  Co4  1  0.80970800  0.35998800  0.05028000  1.0
  Co  Co5  1  0.44972000  0.64001200  0.69029200  1.0
  Co  Co6  1  0.05028000  0.35998800  0.55028000  1.0
  Co  Co7  1  0.80089500  0.00000000  0.93068800  1.0
  Co  Co8  1  0.19910500  1.00000000  0.06931200  1.0
  Co  Co9  1  0.56931200  0.00000000  0.69910500  1.0
  Co  Co10  1  0.43068800  1.00000000  0.30089500  1.0
  Co  Co11  1  0.30089500  0.00000000  0.56931200  1.0
  Co  Co12  1  0.69910500  1.00000000  0.43068800  1.0
  Co  Co13  1  0.06931200  0.00000000  0.80089500  1.0
  Co  Co14  1  0.69029200  0.64001200  0.19029200  1.0
  Co  Co15  1  0.19029200  0.64001200  0.94972000  1.0
  Co  Co16  1  0.00000000  1.00000000  0.50000000  1.0
  Co  Co17  1  0.50000000  0.00000000  0.00000000  1.0
  Co  Co18  1  0.93068800  1.00000000  0.19910500  1.0
  Co  Co19  1  0.94972000  0.64001200  0.44972000  1.0
