# generated using pymatgen
data_Eu
_symmetry_space_group_name_H-M   'P 1'
_cell_length_a   4.10582200
_cell_length_b   4.10582200
_cell_length_c   14.57203299
_cell_angle_alpha   98.09878313
_cell_angle_beta   98.09878313
_cell_angle_gamma   89.99999999
_symmetry_Int_Tables_number   1
_chemical_formula_structural   Eu
_chemical_formula_sum   Eu3
_cell_volume   240.72716240
_cell_formula_units_Z   3
loop_
 _symmetry_equiv_pos_site_id
 _symmetry_equiv_pos_as_xyz
  1  'x, y, z'
loop_
 _atom_site_type_symbol
 _atom_site_label
 _atom_site_symmetry_multiplicity
 _atom_site_fract_x
 _atom_site_fract_y
 _atom_site_fract_z
 _atom_site_occupancy
  Eu  Eu0  1  0.00000000  0.00000000  0.00000000  1.0
  Eu  Eu1  1  0.40017800  0.40017800  0.80035600  1.0
  Eu  Eu2  1  0.59982200  0.59982200  0.19964400  1.0
