# generated using pymatgen
data_Mn
_symmetry_space_group_name_H-M   'P 1'
_cell_length_a   4.78896100
_cell_length_b   6.89455400
_cell_length_c   6.89455408
_cell_angle_alpha   119.99999963
_cell_angle_beta   90.00000000
_cell_angle_gamma   90.00000000
_symmetry_Int_Tables_number   1
_chemical_formula_structural   Mn
_chemical_formula_sum   Mn10
_cell_volume   197.14433126
_cell_formula_units_Z   10
loop_
 _symmetry_equiv_pos_site_id
 _symmetry_equiv_pos_as_xyz
  1  'x, y, z'
loop_
 _atom_site_type_symbol
 _atom_site_label
 _atom_site_symmetry_multiplicity
 _atom_site_fract_x
 _atom_site_fract_y
 _atom_site_fract_z
 _atom_site_occupancy
  Mn  Mn0  1  0.25000000  0.00000000  0.75510300  1.0
  Mn  Mn1  1  0.75000000  0.00000000  0.24489700  1.0
  Mn  Mn2  1  0.75000000  0.24489700  0.00000000  1.0
  Mn  Mn3  1  0.25000000  0.24489700  0.24489700  1.0
  Mn  Mn4  1  0.25000000  0.75510300  0.00000000  1.0
  Mn  Mn5  1  0.75000000  0.75510300  0.75510300  1.0
  Mn  Mn6  1  0.50000000  0.66666667  0.33333333  1.0
  Mn  Mn7  1  0.00000000  0.33333333  0.66666667  1.0
  Mn  Mn8  1  0.50000000  0.33333333  0.66666667  1.0
  Mn  Mn9  1  0.00000000  0.66666667  0.33333333  1.0
