# generated using pymatgen
data_Pb
_symmetry_space_group_name_H-M   'P 1'
_cell_length_a   6.77666600
_cell_length_b   9.03945400
_cell_length_c   9.03945400
_cell_angle_alpha   90.00000000
_cell_angle_beta   90.00000000
_cell_angle_gamma   90.00000000
_symmetry_Int_Tables_number   1
_chemical_formula_structural   Pb
_chemical_formula_sum   Pb12
_cell_volume   553.73309313
_cell_formula_units_Z   12
loop_
 _symmetry_equiv_pos_site_id
 _symmetry_equiv_pos_as_xyz
  1  'x, y, z'
loop_
 _atom_site_type_symbol
 _atom_site_label
 _atom_site_symmetry_multiplicity
 _atom_site_fract_x
 _atom_site_fract_y
 _atom_site_fract_z
 _atom_site_occupancy
  Pb  Pb0  1  0.25000000  0.50000000  0.00000000  1.0
  Pb  Pb1  1  0.75000000  0.00000000  0.50000000  1.0
  Pb  Pb2  1  0.75000000  0.50000000  0.00000000  1.0
  Pb  Pb3  1  0.25000000  0.00000000  0.50000000  1.0
  Pb  Pb4  1  0.00000000  0.14492600  0.16749000  1.0
  Pb  Pb5  1  0.50000000  0.16749000  0.85507400  1.0
  Pb  Pb6  1  0.50000000  0.83251000  0.14492600  1.0
  Pb  Pb7  1  0.00000000  0.85507400  0.83251000  1.0
  Pb  Pb8  1  0.00000000  0.35507400  0.66749000  1.0
  Pb  Pb9  1  0.00000000  0.64492600  0.33251000  1.0
  Pb  Pb10  1  0.50000000  0.66749000  0.64492600  1.0
  Pb  Pb11  1  0.50000000  0.33251000  0.35507400  1.0
