# generated using pymatgen
data_Co
_symmetry_space_group_name_H-M   'P 1'
_cell_length_a   8.13517194
_cell_length_b   8.13517194
_cell_length_c   8.13517205
_cell_angle_alpha   60.00000275
_cell_angle_beta   60.00000273
_cell_angle_gamma   60.00000050
_symmetry_Int_Tables_number   1
_chemical_formula_structural   Co
_chemical_formula_sum   Co23
_cell_volume   380.70206849
_cell_formula_units_Z   23
loop_
 _symmetry_equiv_pos_site_id
 _symmetry_equiv_pos_as_xyz
  1  'x, y, z'
loop_
 _atom_site_type_symbol
 _atom_site_label
 _atom_site_symmetry_multiplicity
 _atom_site_fract_x
 _atom_site_fract_y
 _atom_site_fract_z
 _atom_site_occupancy
  Co  Co0  1  0.50000000  0.50000000  0.50000000  1.0
  Co  Co1  1  0.50000000  0.00000000  0.50000000  1.0
  Co  Co2  1  0.50000000  0.50000000  0.00000000  1.0
  Co  Co3  1  1.00000000  0.00000000  0.50000000  1.0
  Co  Co4  1  0.00000000  0.50000000  0.00000000  1.0
  Co  Co5  1  0.50000000  0.00000000  0.00000000  1.0
  Co  Co6  1  1.00000000  0.50000000  0.50000000  1.0
  Co  Co7  1  0.13686500  0.62104500  0.62104500  1.0
  Co  Co8  1  0.37895500  0.86313500  0.37895500  1.0
  Co  Co9  1  0.37895500  0.37895500  0.86313500  1.0
  Co  Co10  1  0.37895500  0.37895500  0.37895500  1.0
  Co  Co11  1  0.62104500  0.62104500  0.13686500  1.0
  Co  Co12  1  0.62104500  0.62104500  0.62104500  1.0
  Co  Co13  1  0.62104500  0.13686500  0.62104500  1.0
  Co  Co14  1  0.86313500  0.37895500  0.37895500  1.0
  Co  Co15  1  0.52481100  0.82506300  0.82506300  1.0
  Co  Co16  1  0.17493600  0.47519000  0.17493700  1.0
  Co  Co17  1  0.17493600  0.17493700  0.47519000  1.0
  Co  Co18  1  0.17493600  0.17493700  0.17493700  1.0
  Co  Co19  1  0.82506400  0.82506300  0.52481000  1.0
  Co  Co20  1  0.82506400  0.82506300  0.82506300  1.0
  Co  Co21  1  0.82506400  0.52481000  0.82506300  1.0
  Co  Co22  1  0.47518900  0.17493700  0.17493700  1.0
