# generated using pymatgen
data_Mn
_symmetry_space_group_name_H-M   'P 1'
_cell_length_a   3.84179390
_cell_length_b   3.84240253
_cell_length_c   3.84442103
_cell_angle_alpha   87.76684528
_cell_angle_beta   87.74779905
_cell_angle_gamma   87.74350488
_symmetry_Int_Tables_number   1
_chemical_formula_structural   Mn
_chemical_formula_sum   Mn3
_cell_volume   56.62264669
_cell_formula_units_Z   3
loop_
 _symmetry_equiv_pos_site_id
 _symmetry_equiv_pos_as_xyz
  1  'x, y, z'
loop_
 _atom_site_type_symbol
 _atom_site_label
 _atom_site_symmetry_multiplicity
 _atom_site_fract_x
 _atom_site_fract_y
 _atom_site_fract_z
 _atom_site_occupancy
  Mn  Mn0  1  0.49999500  0.99999900  0.50000300  1.0
  Mn  Mn1  1  0.99999800  0.50000000  0.49999800  1.0
  Mn  Mn2  1  0.50000300  0.49999550  0.99998150  1.0
