# generated using pymatgen
data_FeCo2
_symmetry_space_group_name_H-M   'P 1'
_cell_length_a   5.93989310
_cell_length_b   5.93989310
_cell_length_c   5.93989310
_cell_angle_alpha   91.35462880
_cell_angle_beta   119.13549199
_cell_angle_gamma   119.30660125
_symmetry_Int_Tables_number   1
_chemical_formula_structural   FeCo2
_chemical_formula_sum   'Fe2 Co4'
_cell_volume   149.88971235
_cell_formula_units_Z   2
loop_
 _symmetry_equiv_pos_site_id
 _symmetry_equiv_pos_as_xyz
  1  'x, y, z'
loop_
 _atom_site_type_symbol
 _atom_site_label
 _atom_site_symmetry_multiplicity
 _atom_site_fract_x
 _atom_site_fract_y
 _atom_site_fract_z
 _atom_site_occupancy
  Fe  Fe0  1  0.00000000  0.00000000  0.50000000  1.0
  Fe  Fe1  1  0.50000000  0.00000000  0.00000000  1.0
  Co  Co2  1  0.00000000  0.50000000  0.50000000  1.0
  Co  Co3  1  0.75000000  0.62161200  0.87161200  1.0
  Co  Co4  1  0.25000000  0.37838800  0.12838800  1.0
  Co  Co5  1  0.50000000  0.00000000  0.50000000  1.0
