# generated using pymatgen
data_TbNi4
_symmetry_space_group_name_H-M   'P 1'
_cell_length_a   3.95598200
_cell_length_b   4.81211162
_cell_length_c   4.81211162
_cell_angle_alpha   116.38610510
_cell_angle_beta   90.00000000
_cell_angle_gamma   90.00000000
_symmetry_Int_Tables_number   1
_chemical_formula_structural   TbNi4
_chemical_formula_sum   'Tb1 Ni4'
_cell_volume   82.06278172
_cell_formula_units_Z   1
loop_
 _symmetry_equiv_pos_site_id
 _symmetry_equiv_pos_as_xyz
  1  'x, y, z'
loop_
 _atom_site_type_symbol
 _atom_site_label
 _atom_site_symmetry_multiplicity
 _atom_site_fract_x
 _atom_site_fract_y
 _atom_site_fract_z
 _atom_site_occupancy
  Tb  Tb0  1  0.00000000  0.00000000  0.00000000  1.0
  Ni  Ni1  1  0.00000000  0.65789100  0.34210900  1.0
  Ni  Ni2  1  1.00000000  0.34210900  0.65789100  1.0
  Ni  Ni3  1  0.50000000  0.00000000  0.50000000  1.0
  Ni  Ni4  1  0.50000000  0.50000000  0.00000000  1.0
