# generated using pymatgen
data_Nb
_symmetry_space_group_name_H-M   'P 1'
_cell_length_a   4.32242800
_cell_length_b   5.35971887
_cell_length_c   5.35971887
_cell_angle_alpha   80.64235419
_cell_angle_beta   66.21957262
_cell_angle_gamma   66.21957262
_symmetry_Int_Tables_number   1
_chemical_formula_structural   Nb
_chemical_formula_sum   Nb4
_cell_volume   103.97920591
_cell_formula_units_Z   4
loop_
 _symmetry_equiv_pos_site_id
 _symmetry_equiv_pos_as_xyz
  1  'x, y, z'
loop_
 _atom_site_type_symbol
 _atom_site_label
 _atom_site_symmetry_multiplicity
 _atom_site_fract_x
 _atom_site_fract_y
 _atom_site_fract_z
 _atom_site_occupancy
  Nb  Nb0  1  0.78430200  0.61079400  0.82060300  1.0
  Nb  Nb1  1  0.60490400  0.17939700  0.61079500  1.0
  Nb  Nb2  1  0.39509600  0.82060300  0.38920500  1.0
  Nb  Nb3  1  0.21569800  0.38920600  0.17939700  1.0
