# generated using pymatgen
data_Cr2Fe
_symmetry_space_group_name_H-M   'P 1'
_cell_length_a   3.69287000
_cell_length_b   6.38772954
_cell_length_c   6.75487593
_cell_angle_alpha   117.99672091
_cell_angle_beta   105.86361789
_cell_angle_gamma   90.00000000
_symmetry_Int_Tables_number   1
_chemical_formula_structural   Cr2Fe
_chemical_formula_sum   'Cr2 Fe1'
_cell_volume   133.78247342
_cell_formula_units_Z   1
loop_
 _symmetry_equiv_pos_site_id
 _symmetry_equiv_pos_as_xyz
  1  'x, y, z'
loop_
 _atom_site_type_symbol
 _atom_site_label
 _atom_site_symmetry_multiplicity
 _atom_site_fract_x
 _atom_site_fract_y
 _atom_site_fract_z
 _atom_site_occupancy
  Cr  Cr0  1  0.25566600  0.23934200  0.51133200  1.0
  Cr  Cr1  1  0.74433400  0.76065800  0.48866800  1.0
  Fe  Fe2  1  0.00000000  0.00000000  0.00000000  1.0
