# generated using pymatgen
data_Ce2Co
_symmetry_space_group_name_H-M   'P 1'
_cell_length_a   4.66310900
_cell_length_b   4.66310900
_cell_length_c   12.34555200
_cell_angle_alpha   90.00000000
_cell_angle_beta   90.00000000
_cell_angle_gamma   90.00000000
_symmetry_Int_Tables_number   1
_chemical_formula_structural   Ce2Co
_chemical_formula_sum   'Ce2 Co1'
_cell_volume   268.44891158
_cell_formula_units_Z   1
loop_
 _symmetry_equiv_pos_site_id
 _symmetry_equiv_pos_as_xyz
  1  'x, y, z'
loop_
 _atom_site_type_symbol
 _atom_site_label
 _atom_site_symmetry_multiplicity
 _atom_site_fract_x
 _atom_site_fract_y
 _atom_site_fract_z
 _atom_site_occupancy
  Ce  Ce0  1  0.00000000  0.00000000  0.69625000  1.0
  Ce  Ce1  1  0.00000000  0.00000000  0.30375000  1.0
  Co  Co2  1  0.00000000  0.00000000  0.00000000  1.0
