# generated using pymatgen
data_Er2Pd
_symmetry_space_group_name_H-M   'P 1'
_cell_length_a   7.78528000
_cell_length_b   8.18804800
_cell_length_c   8.18804750
_cell_angle_alpha   120.00000202
_cell_angle_beta   90.00000000
_cell_angle_gamma   90.00000000
_symmetry_Int_Tables_number   1
_chemical_formula_structural   Er2Pd
_chemical_formula_sum   'Er8 Pd4'
_cell_volume   452.02826612
_cell_formula_units_Z   4
loop_
 _symmetry_equiv_pos_site_id
 _symmetry_equiv_pos_as_xyz
  1  'x, y, z'
loop_
 _atom_site_type_symbol
 _atom_site_label
 _atom_site_symmetry_multiplicity
 _atom_site_fract_x
 _atom_site_fract_y
 _atom_site_fract_z
 _atom_site_occupancy
  Er  Er0  1  0.75000000  0.48811900  0.51188200  1.0
  Er  Er1  1  0.25000000  0.51188100  0.48811800  1.0
  Er  Er2  1  0.75000000  0.02376300  0.51188200  1.0
  Er  Er3  1  0.25000000  0.97623700  0.48811800  1.0
  Er  Er4  1  0.75000000  0.48811900  0.97623800  1.0
  Er  Er5  1  0.25000000  0.51188100  0.02376200  1.0
  Er  Er6  1  0.75000000  0.00000000  0.00000000  1.0
  Er  Er7  1  0.25000000  0.00000000  0.00000000  1.0
  Pd  Pd8  1  0.95662800  0.66666667  0.33333333  1.0
  Pd  Pd9  1  0.04337200  0.33333333  0.66666667  1.0
  Pd  Pd10  1  0.45662800  0.33333333  0.66666667  1.0
  Pd  Pd11  1  0.54337200  0.66666667  0.33333333  1.0
