# generated using pymatgen
data_DyNi
_symmetry_space_group_name_H-M   'P 1'
_cell_length_a   3.72632200
_cell_length_b   7.51543400
_cell_length_c   7.51543420
_cell_angle_alpha   119.99999910
_cell_angle_beta   90.00000000
_cell_angle_gamma   90.00000000
_symmetry_Int_Tables_number   1
_chemical_formula_structural   DyNi
_chemical_formula_sum   'Dy3 Ni3'
_cell_volume   182.27166381
_cell_formula_units_Z   3
loop_
 _symmetry_equiv_pos_site_id
 _symmetry_equiv_pos_as_xyz
  1  'x, y, z'
loop_
 _atom_site_type_symbol
 _atom_site_label
 _atom_site_symmetry_multiplicity
 _atom_site_fract_x
 _atom_site_fract_y
 _atom_site_fract_z
 _atom_site_occupancy
  Dy  Dy0  1  0.50000000  0.59052100  1.00000000  1.0
  Dy  Dy1  1  0.50000000  0.40947900  0.40947900  1.0
  Dy  Dy2  1  0.50000000  0.00000000  0.59052100  1.0
  Ni  Ni3  1  0.00000000  0.33333333  0.66666667  1.0
  Ni  Ni4  1  1.00000000  0.66666667  0.33333333  1.0
  Ni  Ni5  1  0.50000000  0.00000000  0.00000000  1.0
