# generated using pymatgen
data_Er12Co7
_symmetry_space_group_name_H-M   'P 1'
_cell_length_a   8.20347400
_cell_length_b   9.16661091
_cell_length_c   11.07638400
_cell_angle_alpha   90.00000000
_cell_angle_beta   90.00000000
_cell_angle_gamma   102.22084063
_symmetry_Int_Tables_number   1
_chemical_formula_structural   Er12Co7
_chemical_formula_sum   'Er24 Co14'
_cell_volume   814.04763715
_cell_formula_units_Z   2
loop_
 _symmetry_equiv_pos_site_id
 _symmetry_equiv_pos_as_xyz
  1  'x, y, z'
loop_
 _atom_site_type_symbol
 _atom_site_label
 _atom_site_symmetry_multiplicity
 _atom_site_fract_x
 _atom_site_fract_y
 _atom_site_fract_z
 _atom_site_occupancy
  Er  Er0  1  0.77287600  0.53747500  0.70513400  1.0
  Er  Er1  1  0.72712400  0.96252500  0.20513400  1.0
  Er  Er2  1  0.15989700  0.65805300  0.84218800  1.0
  Er  Er3  1  0.34010300  0.84194700  0.34218800  1.0
  Er  Er4  1  0.84010300  0.34194700  0.15781200  1.0
  Er  Er5  1  0.65989700  0.15805300  0.65781200  1.0
  Er  Er6  1  0.20192200  0.35469300  0.00478400  1.0
  Er  Er7  1  0.29807800  0.14530700  0.50478400  1.0
  Er  Er8  1  0.79807800  0.64530700  0.99521600  1.0
  Er  Er9  1  0.70192200  0.85469300  0.49521600  1.0
  Er  Er10  1  0.27287600  0.03747500  0.79486600  1.0
  Er  Er11  1  0.22712400  0.46252500  0.29486600  1.0
  Er  Er12  1  0.85757900  0.08674700  0.92774200  1.0
  Er  Er13  1  0.64242100  0.41325300  0.42774200  1.0
  Er  Er14  1  0.14242100  0.91325300  0.07225800  1.0
  Er  Er15  1  0.35757900  0.58674700  0.57225800  1.0
  Er  Er16  1  0.92453900  0.67493000  0.30062500  1.0
  Er  Er17  1  0.57546100  0.82507000  0.80062500  1.0
  Er  Er18  1  0.07546100  0.32507000  0.69937500  1.0
  Er  Er19  1  0.42453900  0.17493000  0.19937500  1.0
  Er  Er20  1  0.57258500  0.30347300  0.92909100  1.0
  Er  Er21  1  0.92741500  0.19652700  0.42909100  1.0
  Er  Er22  1  0.42741500  0.69652700  0.07090900  1.0
  Er  Er23  1  0.07258500  0.80347300  0.57090900  1.0
  Co  Co24  1  0.00000000  0.50000000  0.50000000  1.0
  Co  Co25  1  0.50000000  1.00000000  0.00000000  1.0
  Co  Co26  1  0.94111200  0.03074300  0.67097100  1.0
  Co  Co27  1  0.55888800  0.46925700  0.17097100  1.0
  Co  Co28  1  0.05888800  0.96925700  0.32902900  1.0
  Co  Co29  1  0.44111200  0.53074300  0.82902900  1.0
  Co  Co30  1  0.59208300  0.09986400  0.40180400  1.0
  Co  Co31  1  0.90791700  0.40013600  0.90180400  1.0
  Co  Co32  1  0.40791700  0.90013600  0.59819600  1.0
  Co  Co33  1  0.09208300  0.59986400  0.09819600  1.0
  Co  Co34  1  0.94112300  0.84360600  0.81063500  1.0
  Co  Co35  1  0.55887700  0.65639400  0.31063500  1.0
  Co  Co36  1  0.05887700  0.15639400  0.18936500  1.0
  Co  Co37  1  0.44112300  0.34360600  0.68936500  1.0
