# generated using pymatgen
data_GdCu2Ru
_symmetry_space_group_name_H-M   'P 1'
_cell_length_a   3.89371218
_cell_length_b   3.89371218
_cell_length_c   11.57097900
_cell_angle_alpha   89.88910808
_cell_angle_beta   89.88910808
_cell_angle_gamma   89.87313387
_symmetry_Int_Tables_number   1
_chemical_formula_structural   GdCu2Ru
_chemical_formula_sum   'Gd1 Cu2 Ru1'
_cell_volume   175.42646373
_cell_formula_units_Z   1
loop_
 _symmetry_equiv_pos_site_id
 _symmetry_equiv_pos_as_xyz
  1  'x, y, z'
loop_
 _atom_site_type_symbol
 _atom_site_label
 _atom_site_symmetry_multiplicity
 _atom_site_fract_x
 _atom_site_fract_y
 _atom_site_fract_z
 _atom_site_occupancy
  Gd  Gd0  1  0.49981200  0.50018800  1.00000000  1.0
  Cu  Cu1  1  0.99969300  0.99974300  0.85686500  1.0
  Cu  Cu2  1  0.00025700  0.00030700  0.14313500  1.0
  Ru  Ru3  1  0.01808100  0.98191900  0.50000000  1.0
