# generated using pymatgen
data_Gd
_symmetry_space_group_name_H-M   'P 1'
_cell_length_a   4.21279000
_cell_length_b   4.21279000
_cell_length_c   8.33712102
_cell_angle_alpha   104.63453295
_cell_angle_beta   104.63453294
_cell_angle_gamma   90.00000001
_symmetry_Int_Tables_number   1
_chemical_formula_structural   Gd
_chemical_formula_sum   Gd2
_cell_volume   138.19647625
_cell_formula_units_Z   2
loop_
 _symmetry_equiv_pos_site_id
 _symmetry_equiv_pos_as_xyz
  1  'x, y, z'
loop_
 _atom_site_type_symbol
 _atom_site_label
 _atom_site_symmetry_multiplicity
 _atom_site_fract_x
 _atom_site_fract_y
 _atom_site_fract_z
 _atom_site_occupancy
  Gd  Gd0  1  0.67787500  0.67787500  0.35575000  1.0
  Gd  Gd1  1  0.32212500  0.32212500  0.64425000  1.0
