# generated using pymatgen
data_Eu
_symmetry_space_group_name_H-M   'P 1'
_cell_length_a   6.08831200
_cell_length_b   8.36855962
_cell_length_c   8.36855962
_cell_angle_alpha   74.92938424
_cell_angle_beta   68.66864477
_cell_angle_gamma   68.66864478
_symmetry_Int_Tables_number   1
_chemical_formula_structural   Eu
_chemical_formula_sum   Eu4
_cell_volume   365.93391567
_cell_formula_units_Z   4
loop_
 _symmetry_equiv_pos_site_id
 _symmetry_equiv_pos_as_xyz
  1  'x, y, z'
loop_
 _atom_site_type_symbol
 _atom_site_label
 _atom_site_symmetry_multiplicity
 _atom_site_fract_x
 _atom_site_fract_y
 _atom_site_fract_z
 _atom_site_occupancy
  Eu  Eu0  1  0.87064500  0.36271900  0.89599100  1.0
  Eu  Eu1  1  0.12935500  0.63728100  0.10400900  1.0
  Eu  Eu2  1  0.37064500  0.89599100  0.36271900  1.0
  Eu  Eu3  1  0.62935500  0.10400900  0.63728100  1.0
