# generated using pymatgen
data_U
_symmetry_space_group_name_H-M   'P 1'
_cell_length_a   7.72789600
_cell_length_b   7.79408577
_cell_length_c   7.72789600
_cell_angle_alpha   119.71947212
_cell_angle_beta   89.99999999
_cell_angle_gamma   119.71947213
_symmetry_Int_Tables_number   1
_chemical_formula_structural   U
_chemical_formula_sum   U6
_cell_volume   331.90554826
_cell_formula_units_Z   6
loop_
 _symmetry_equiv_pos_site_id
 _symmetry_equiv_pos_as_xyz
  1  'x, y, z'
loop_
 _atom_site_type_symbol
 _atom_site_label
 _atom_site_symmetry_multiplicity
 _atom_site_fract_x
 _atom_site_fract_y
 _atom_site_fract_z
 _atom_site_occupancy
  U  U0  1  0.63620100  0.95941800  0.13620100  1.0
  U  U1  1  0.32321700  0.95941800  0.82321700  1.0
  U  U2  1  0.82321700  0.95941800  0.63620100  1.0
  U  U3  1  0.13620100  0.95941800  0.32321700  1.0
  U  U4  1  0.25346200  0.50692400  0.25346200  1.0
  U  U5  1  0.75346200  0.50692400  0.75346200  1.0
