# generated using pymatgen
data_Ni
_symmetry_space_group_name_H-M   'P 1'
_cell_length_a   4.15882300
_cell_length_b   8.90949000
_cell_length_c   11.54692500
_cell_angle_alpha   90.00000000
_cell_angle_beta   90.00000000
_cell_angle_gamma   90.00000000
_symmetry_Int_Tables_number   1
_chemical_formula_structural   Ni
_chemical_formula_sum   Ni4
_cell_volume   427.84811884
_cell_formula_units_Z   4
loop_
 _symmetry_equiv_pos_site_id
 _symmetry_equiv_pos_as_xyz
  1  'x, y, z'
loop_
 _atom_site_type_symbol
 _atom_site_label
 _atom_site_symmetry_multiplicity
 _atom_site_fract_x
 _atom_site_fract_y
 _atom_site_fract_z
 _atom_site_occupancy
  Ni  Ni0  1  0.25000000  0.08909200  0.48102200  1.0
  Ni  Ni1  1  0.75000000  0.91090800  0.51897800  1.0
  Ni  Ni2  1  0.25000000  0.58909200  0.01897800  1.0
  Ni  Ni3  1  0.75000000  0.41090800  0.98102200  1.0
