# generated using pymatgen
data_PrCu4Pd
_symmetry_space_group_name_H-M   'P 1'
_cell_length_a   4.23166300
_cell_length_b   5.18113200
_cell_length_c   5.18113206
_cell_angle_alpha   60.00000037
_cell_angle_beta   90.00000000
_cell_angle_gamma   90.00000000
_symmetry_Int_Tables_number   1
_chemical_formula_structural   PrCu4Pd
_chemical_formula_sum   'Pr1 Cu4 Pd1'
_cell_volume   98.37642282
_cell_formula_units_Z   1
loop_
 _symmetry_equiv_pos_site_id
 _symmetry_equiv_pos_as_xyz
  1  'x, y, z'
loop_
 _atom_site_type_symbol
 _atom_site_label
 _atom_site_symmetry_multiplicity
 _atom_site_fract_x
 _atom_site_fract_y
 _atom_site_fract_z
 _atom_site_occupancy
  Pr  Pr0  1  0.00000000  0.66666667  0.66666667  1.0
  Cu  Cu1  1  0.00000000  0.33333333  0.33333333  1.0
  Cu  Cu2  1  0.50000000  0.17067700  0.17067600  1.0
  Cu  Cu3  1  0.50000000  0.17067700  0.65864600  1.0
  Cu  Cu4  1  0.50000000  0.65864700  0.17067600  1.0
  Pd  Pd5  1  0.00000000  0.00000000  0.00000000  1.0
