# generated using pymatgen
data_Cr
_symmetry_space_group_name_H-M   'P 1'
_cell_length_a   6.83798753
_cell_length_b   6.83798753
_cell_length_c   8.56467877
_cell_angle_alpha   66.47201558
_cell_angle_beta   66.47201558
_cell_angle_gamma   60.00000452
_symmetry_Int_Tables_number   1
_chemical_formula_structural   Cr
_chemical_formula_sum   Cr2
_cell_volume   307.77248979
_cell_formula_units_Z   2
loop_
 _symmetry_equiv_pos_site_id
 _symmetry_equiv_pos_as_xyz
  1  'x, y, z'
loop_
 _atom_site_type_symbol
 _atom_site_label
 _atom_site_symmetry_multiplicity
 _atom_site_fract_x
 _atom_site_fract_y
 _atom_site_fract_z
 _atom_site_occupancy
  Cr  Cr0  1  0.66629900  0.66629900  0.00110300  1.0
  Cr  Cr1  1  0.33370100  0.33370100  0.99889700  1.0
