# generated using pymatgen
data_NdCo2
_symmetry_space_group_name_H-M   'P 1'
_cell_length_a   3.58415400
_cell_length_b   3.58415400
_cell_length_c   5.58913252
_cell_angle_alpha   108.70139082
_cell_angle_beta   108.70139081
_cell_angle_gamma   90.00000001
_symmetry_Int_Tables_number   1
_chemical_formula_structural   NdCo2
_chemical_formula_sum   'Nd1 Co2'
_cell_volume   63.99312000
_cell_formula_units_Z   1
loop_
 _symmetry_equiv_pos_site_id
 _symmetry_equiv_pos_as_xyz
  1  'x, y, z'
loop_
 _atom_site_type_symbol
 _atom_site_label
 _atom_site_symmetry_multiplicity
 _atom_site_fract_x
 _atom_site_fract_y
 _atom_site_fract_z
 _atom_site_occupancy
  Nd  Nd0  1  0.00000000  0.00000000  0.00000000  1.0
  Co  Co1  1  0.75000000  0.25000000  0.50000000  1.0
  Co  Co2  1  0.25000000  0.75000000  0.50000000  1.0
