# generated using pymatgen
data_Ni
_symmetry_space_group_name_H-M   'P 1'
_cell_length_a   3.95044800
_cell_length_b   8.17518220
_cell_length_c   8.17518220
_cell_angle_alpha   80.39478458
_cell_angle_beta   76.01828497
_cell_angle_gamma   76.01828498
_symmetry_Int_Tables_number   1
_chemical_formula_structural   Ni
_chemical_formula_sum   Ni6
_cell_volume   246.95458516
_cell_formula_units_Z   6
loop_
 _symmetry_equiv_pos_site_id
 _symmetry_equiv_pos_as_xyz
  1  'x, y, z'
loop_
 _atom_site_type_symbol
 _atom_site_label
 _atom_site_symmetry_multiplicity
 _atom_site_fract_x
 _atom_site_fract_y
 _atom_site_fract_z
 _atom_site_occupancy
  Ni  Ni0  1  0.84335100  0.89585800  0.41744100  1.0
  Ni  Ni1  1  0.50000000  0.27065800  0.72934200  1.0
  Ni  Ni2  1  0.50000000  0.72934200  0.27065800  1.0
  Ni  Ni3  1  0.84335000  0.41744200  0.89585800  1.0
  Ni  Ni4  1  0.15664900  0.10414200  0.58255900  1.0
  Ni  Ni5  1  0.15665000  0.58255800  0.10414200  1.0
