# generated using pymatgen
data_CrFe2
_symmetry_space_group_name_H-M   'P 1'
_cell_length_a   2.82278100
_cell_length_b   2.82278100
_cell_length_c   5.72579800
_cell_angle_alpha   90.00000000
_cell_angle_beta   90.00000000
_cell_angle_gamma   90.00000000
_symmetry_Int_Tables_number   1
_chemical_formula_structural   CrFe2
_chemical_formula_sum   'Cr1 Fe2'
_cell_volume   45.62368852
_cell_formula_units_Z   1
loop_
 _symmetry_equiv_pos_site_id
 _symmetry_equiv_pos_as_xyz
  1  'x, y, z'
loop_
 _atom_site_type_symbol
 _atom_site_label
 _atom_site_symmetry_multiplicity
 _atom_site_fract_x
 _atom_site_fract_y
 _atom_site_fract_z
 _atom_site_occupancy
  Cr  Cr0  1  0.00000000  0.00000000  0.00000000  1.0
  Fe  Fe1  1  0.50000000  0.50000000  0.24116400  1.0
  Fe  Fe2  1  0.50000000  0.50000000  0.75883600  1.0
