# generated using pymatgen
data_Mn3Cu4
_symmetry_space_group_name_H-M   'P 1'
_cell_length_a   8.52677864
_cell_length_b   8.52677864
_cell_length_c   8.52677864
_cell_angle_alpha   60.00000000
_cell_angle_beta   60.00000000
_cell_angle_gamma   60.00000000
_symmetry_Int_Tables_number   1
_chemical_formula_structural   Mn3Cu4
_chemical_formula_sum   'Mn6 Cu8'
_cell_volume   438.36913452
_cell_formula_units_Z   2
loop_
 _symmetry_equiv_pos_site_id
 _symmetry_equiv_pos_as_xyz
  1  'x, y, z'
loop_
 _atom_site_type_symbol
 _atom_site_label
 _atom_site_symmetry_multiplicity
 _atom_site_fract_x
 _atom_site_fract_y
 _atom_site_fract_z
 _atom_site_occupancy
  Mn  Mn0  1  0.00000000  0.00000000  0.50000000  1.0
  Mn  Mn1  1  0.50000000  0.50000000  0.00000000  1.0
  Mn  Mn2  1  0.00000000  0.50000000  0.50000000  1.0
  Mn  Mn3  1  0.00000000  0.50000000  0.00000000  1.0
  Mn  Mn4  1  0.50000000  0.00000000  0.50000000  1.0
  Mn  Mn5  1  0.50000000  0.00000000  0.00000000  1.0
  Cu  Cu6  1  0.67016200  0.10994600  0.10994600  1.0
  Cu  Cu7  1  0.89005500  0.89005400  0.32983700  1.0
  Cu  Cu8  1  0.32983800  0.89005400  0.89005400  1.0
  Cu  Cu9  1  0.10994500  0.10994600  0.67016300  1.0
  Cu  Cu10  1  0.10994500  0.10994600  0.10994600  1.0
  Cu  Cu11  1  0.10994500  0.67016300  0.10994600  1.0
  Cu  Cu12  1  0.89005500  0.89005400  0.89005400  1.0
  Cu  Cu13  1  0.89005500  0.32983700  0.89005400  1.0
