# generated using pymatgen
data_Ho
_symmetry_space_group_name_H-M   'P 1'
_cell_length_a   7.57874200
_cell_length_b   8.20221600
_cell_length_c   8.20221600
_cell_angle_alpha   90.00000000
_cell_angle_beta   90.00000000
_cell_angle_gamma   90.00000000
_symmetry_Int_Tables_number   1
_chemical_formula_structural   Ho
_chemical_formula_sum   Ho12
_cell_volume   509.87007897
_cell_formula_units_Z   12
loop_
 _symmetry_equiv_pos_site_id
 _symmetry_equiv_pos_as_xyz
  1  'x, y, z'
loop_
 _atom_site_type_symbol
 _atom_site_label
 _atom_site_symmetry_multiplicity
 _atom_site_fract_x
 _atom_site_fract_y
 _atom_site_fract_z
 _atom_site_occupancy
  Ho  Ho0  1  0.25000000  0.00000000  0.50000000  1.0
  Ho  Ho1  1  0.75000000  0.50000000  0.00000000  1.0
  Ho  Ho2  1  0.25000000  0.50000000  0.00000000  1.0
  Ho  Ho3  1  0.75000000  0.00000000  0.50000000  1.0
  Ho  Ho4  1  0.50000000  0.14996500  0.85003500  1.0
  Ho  Ho5  1  0.50000000  0.85003500  0.14996500  1.0
  Ho  Ho6  1  0.00000000  0.35003500  0.35003500  1.0
  Ho  Ho7  1  1.00000000  0.64996500  0.64996500  1.0
  Ho  Ho8  1  0.00000000  0.20120400  0.79879600  1.0
  Ho  Ho9  1  0.00000000  0.79879600  0.20120400  1.0
  Ho  Ho10  1  0.50000000  0.29879600  0.29879600  1.0
  Ho  Ho11  1  0.50000000  0.70120400  0.70120400  1.0
