# generated using pymatgen
data_Pu
_symmetry_space_group_name_H-M   'P 1'
_cell_length_a   5.18275600
_cell_length_b   6.11925000
_cell_length_c   6.11924918
_cell_angle_alpha   120.00000446
_cell_angle_beta   90.00000000
_cell_angle_gamma   90.00000000
_symmetry_Int_Tables_number   1
_chemical_formula_structural   Pu
_chemical_formula_sum   Pu8
_cell_volume   168.06903652
_cell_formula_units_Z   8
loop_
 _symmetry_equiv_pos_site_id
 _symmetry_equiv_pos_as_xyz
  1  'x, y, z'
loop_
 _atom_site_type_symbol
 _atom_site_label
 _atom_site_symmetry_multiplicity
 _atom_site_fract_x
 _atom_site_fract_y
 _atom_site_fract_z
 _atom_site_occupancy
  Pu  Pu0  1  0.25000000  0.26264200  0.91989800  1.0
  Pu  Pu1  1  0.25000000  0.65725600  0.73735900  1.0
  Pu  Pu2  1  0.75000000  0.91989700  0.65725500  1.0
  Pu  Pu3  1  0.75000000  0.34274400  0.26264100  1.0
  Pu  Pu4  1  0.25000000  0.08010300  0.34274500  1.0
  Pu  Pu5  1  0.75000000  0.33333333  0.66666667  1.0
  Pu  Pu6  1  0.75000000  0.73735800  0.08010200  1.0
  Pu  Pu7  1  0.25000000  0.66666667  0.33333333  1.0
