# generated using pymatgen
data_Mn
_symmetry_space_group_name_H-M   'P 1'
_cell_length_a   5.49510554
_cell_length_b   5.63764536
_cell_length_c   9.14175493
_cell_angle_alpha   107.83628001
_cell_angle_beta   107.41967705
_cell_angle_gamma   90.24962936
_symmetry_Int_Tables_number   1
_chemical_formula_structural   Mn
_chemical_formula_sum   Mn4
_cell_volume   255.78776569
_cell_formula_units_Z   4
loop_
 _symmetry_equiv_pos_site_id
 _symmetry_equiv_pos_as_xyz
  1  'x, y, z'
loop_
 _atom_site_type_symbol
 _atom_site_label
 _atom_site_symmetry_multiplicity
 _atom_site_fract_x
 _atom_site_fract_y
 _atom_site_fract_z
 _atom_site_occupancy
  Mn  Mn0  1  0.27724800  0.30398400  0.49987400  1.0
  Mn  Mn1  1  0.79222100  0.69865400  0.50018500  1.0
  Mn  Mn2  1  0.49771600  0.49752400  0.00012900  1.0
  Mn  Mn3  1  0.99773200  0.99761600  0.00044800  1.0
