# generated using pymatgen
data_GdCu2Ru
_symmetry_space_group_name_H-M   'P 1'
_cell_length_a   5.47245100
_cell_length_b   5.47245100
_cell_length_c   11.74070200
_cell_angle_alpha   90.00000000
_cell_angle_beta   90.00000000
_cell_angle_gamma   90.00000000
_symmetry_Int_Tables_number   1
_chemical_formula_structural   GdCu2Ru
_chemical_formula_sum   'Gd2 Cu4 Ru2'
_cell_volume   351.60725548
_cell_formula_units_Z   2
loop_
 _symmetry_equiv_pos_site_id
 _symmetry_equiv_pos_as_xyz
  1  'x, y, z'
loop_
 _atom_site_type_symbol
 _atom_site_label
 _atom_site_symmetry_multiplicity
 _atom_site_fract_x
 _atom_site_fract_y
 _atom_site_fract_z
 _atom_site_occupancy
  Gd  Gd0  1  0.50000000  0.00000000  0.50000000  1.0
  Gd  Gd1  1  0.00000000  0.50000000  0.50000000  1.0
  Cu  Cu2  1  0.50000000  0.50000000  0.64302100  1.0
  Cu  Cu3  1  0.00000000  0.00000000  0.35697900  1.0
  Cu  Cu4  1  0.50000000  0.50000000  0.35697900  1.0
  Cu  Cu5  1  0.00000000  0.00000000  0.64302100  1.0
  Ru  Ru6  1  0.50000000  0.50000000  0.00000000  1.0
  Ru  Ru7  1  0.00000000  0.00000000  0.00000000  1.0
