# generated using pymatgen
data_NdCo4
_symmetry_space_group_name_H-M   'P 1'
_cell_length_a   4.02175300
_cell_length_b   8.72686800
_cell_length_c   8.72686767
_cell_angle_alpha   120.00000126
_cell_angle_beta   90.00000000
_cell_angle_gamma   90.00000000
_symmetry_Int_Tables_number   1
_chemical_formula_structural   NdCo4
_chemical_formula_sum   'Nd3 Co12'
_cell_volume   265.25453541
_cell_formula_units_Z   3
loop_
 _symmetry_equiv_pos_site_id
 _symmetry_equiv_pos_as_xyz
  1  'x, y, z'
loop_
 _atom_site_type_symbol
 _atom_site_label
 _atom_site_symmetry_multiplicity
 _atom_site_fract_x
 _atom_site_fract_y
 _atom_site_fract_z
 _atom_site_occupancy
  Nd  Nd0  1  0.00000000  0.66666667  0.33333333  1.0
  Nd  Nd1  1  1.00000000  0.33333333  0.66666667  1.0
  Nd  Nd2  1  0.00000000  0.00000000  0.00000000  1.0
  Co  Co3  1  0.50000000  0.83961800  0.16038100  1.0
  Co  Co4  1  0.50000000  0.16038200  0.83961900  1.0
  Co  Co5  1  0.50000000  0.32076300  0.16038100  1.0
  Co  Co6  1  0.50000000  0.67923700  0.83961900  1.0
  Co  Co7  1  0.50000000  0.83961800  0.67923600  1.0
  Co  Co8  1  0.50000000  0.16038200  0.32076400  1.0
  Co  Co9  1  1.00000000  0.67610900  0.67610900  1.0
  Co  Co10  1  1.00000000  0.32389100  0.32389100  1.0
  Co  Co11  1  0.00000000  1.00000000  0.32389100  1.0
  Co  Co12  1  0.00000000  1.00000000  0.67610900  1.0
  Co  Co13  1  0.00000000  0.32389100  0.00000000  1.0
  Co  Co14  1  1.00000000  0.67610900  1.00000000  1.0
