# generated using pymatgen
data_Gd2MnNi
_symmetry_space_group_name_H-M   'P 1'
_cell_length_a   5.34112600
_cell_length_b   5.65200300
_cell_length_c   7.63457371
_cell_angle_alpha   90.00000000
_cell_angle_beta   89.55553256
_cell_angle_gamma   90.00000000
_symmetry_Int_Tables_number   1
_chemical_formula_structural   Gd2MnNi
_chemical_formula_sum   'Gd4 Mn2 Ni2'
_cell_volume   230.46603596
_cell_formula_units_Z   2
loop_
 _symmetry_equiv_pos_site_id
 _symmetry_equiv_pos_as_xyz
  1  'x, y, z'
loop_
 _atom_site_type_symbol
 _atom_site_label
 _atom_site_symmetry_multiplicity
 _atom_site_fract_x
 _atom_site_fract_y
 _atom_site_fract_z
 _atom_site_occupancy
  Gd  Gd0  1  0.48142000  0.06565300  0.24787700  1.0
  Gd  Gd1  1  0.51858000  0.93434700  0.75212300  1.0
  Gd  Gd2  1  0.01858000  0.56565300  0.25212300  1.0
  Gd  Gd3  1  0.98142000  0.43434700  0.74787700  1.0
  Mn  Mn4  1  0.50000000  0.50000000  0.50000000  1.0
  Mn  Mn5  1  0.00000000  0.00000000  0.00000000  1.0
  Ni  Ni6  1  0.50000000  0.50000000  0.00000000  1.0
  Ni  Ni7  1  0.00000000  0.00000000  0.50000000  1.0
