# generated using pymatgen
data_Mo
_symmetry_space_group_name_H-M   'P 1'
_cell_length_a   8.36984801
_cell_length_b   8.36984801
_cell_length_c   8.36984801
_cell_angle_alpha   109.47122063
_cell_angle_beta   109.47122064
_cell_angle_gamma   109.47122064
_symmetry_Int_Tables_number   1
_chemical_formula_structural   Mo
_chemical_formula_sum   Mo6
_cell_volume   451.36806016
_cell_formula_units_Z   6
loop_
 _symmetry_equiv_pos_site_id
 _symmetry_equiv_pos_as_xyz
  1  'x, y, z'
loop_
 _atom_site_type_symbol
 _atom_site_label
 _atom_site_symmetry_multiplicity
 _atom_site_fract_x
 _atom_site_fract_y
 _atom_site_fract_z
 _atom_site_occupancy
  Mo  Mo0  1  0.00000000  0.34220000  0.34220000  1.0
  Mo  Mo1  1  0.65780000  0.00000000  0.65780000  1.0
  Mo  Mo2  1  0.34220000  1.00000000  0.34220000  1.0
  Mo  Mo3  1  0.34220000  0.34220000  1.00000000  1.0
  Mo  Mo4  1  0.65780000  0.65780000  1.00000000  1.0
  Mo  Mo5  1  0.00000000  0.65780000  0.65780000  1.0
