# generated using pymatgen
data_Mn
_symmetry_space_group_name_H-M   'P 1'
_cell_length_a   6.01204281
_cell_length_b   6.23767700
_cell_length_c   6.29565855
_cell_angle_alpha   119.69595277
_cell_angle_beta   118.47162411
_cell_angle_gamma   89.99994389
_symmetry_Int_Tables_number   1
_chemical_formula_structural   Mn
_chemical_formula_sum   Mn4
_cell_volume   171.44383696
_cell_formula_units_Z   4
loop_
 _symmetry_equiv_pos_site_id
 _symmetry_equiv_pos_as_xyz
  1  'x, y, z'
loop_
 _atom_site_type_symbol
 _atom_site_label
 _atom_site_symmetry_multiplicity
 _atom_site_fract_x
 _atom_site_fract_y
 _atom_site_fract_z
 _atom_site_occupancy
  Mn  Mn0  1  0.74492000  0.24544800  0.49085800  1.0
  Mn  Mn1  1  0.00505900  0.00453400  0.00903400  1.0
  Mn  Mn2  1  0.37525400  0.62483300  0.24996500  1.0
  Mn  Mn3  1  0.87477000  0.62503100  0.25001300  1.0
