# generated using pymatgen
data_Gd
_symmetry_space_group_name_H-M   'P 1'
_cell_length_a   4.30676100
_cell_length_b   7.30546000
_cell_length_c   7.30546000
_cell_angle_alpha   90.00000000
_cell_angle_beta   90.00000000
_cell_angle_gamma   90.00000000
_symmetry_Int_Tables_number   1
_chemical_formula_structural   Gd
_chemical_formula_sum   Gd4
_cell_volume   229.85073984
_cell_formula_units_Z   4
loop_
 _symmetry_equiv_pos_site_id
 _symmetry_equiv_pos_as_xyz
  1  'x, y, z'
loop_
 _atom_site_type_symbol
 _atom_site_label
 _atom_site_symmetry_multiplicity
 _atom_site_fract_x
 _atom_site_fract_y
 _atom_site_fract_z
 _atom_site_occupancy
  Gd  Gd0  1  0.00000000  0.82237700  0.32237700  1.0
  Gd  Gd1  1  0.00000000  0.32237700  0.17762300  1.0
  Gd  Gd2  1  0.00000000  0.17762300  0.67762300  1.0
  Gd  Gd3  1  0.00000000  0.67762300  0.82237700  1.0
