# generated using pymatgen
data_PrCo4
_symmetry_space_group_name_H-M   'P 1'
_cell_length_a   3.88254200
_cell_length_b   5.19150400
_cell_length_c   5.19150283
_cell_angle_alpha   120.00000744
_cell_angle_beta   90.00000000
_cell_angle_gamma   90.00000000
_symmetry_Int_Tables_number   1
_chemical_formula_structural   PrCo4
_chemical_formula_sum   'Pr1 Co4'
_cell_volume   90.62187622
_cell_formula_units_Z   1
loop_
 _symmetry_equiv_pos_site_id
 _symmetry_equiv_pos_as_xyz
  1  'x, y, z'
loop_
 _atom_site_type_symbol
 _atom_site_label
 _atom_site_symmetry_multiplicity
 _atom_site_fract_x
 _atom_site_fract_y
 _atom_site_fract_z
 _atom_site_occupancy
  Pr  Pr0  1  0.00000000  0.66666667  0.33333333  1.0
  Co  Co1  1  0.00000000  0.00000000  0.00000000  1.0
  Co  Co2  1  0.50000000  0.67479800  0.83739900  1.0
  Co  Co3  1  0.50000000  0.16260100  0.32520200  1.0
  Co  Co4  1  0.50000000  0.16260100  0.83739900  1.0
