# generated using pymatgen
data_HoNi
_symmetry_space_group_name_H-M   'P 1'
_cell_length_a   4.05004600
_cell_length_b   5.45974657
_cell_length_c   6.86845400
_cell_angle_alpha   90.00000000
_cell_angle_beta   90.00000000
_cell_angle_gamma   111.77116718
_symmetry_Int_Tables_number   1
_chemical_formula_structural   HoNi
_chemical_formula_sum   'Ho2 Ni2'
_cell_volume   141.04382013
_cell_formula_units_Z   2
loop_
 _symmetry_equiv_pos_site_id
 _symmetry_equiv_pos_as_xyz
  1  'x, y, z'
loop_
 _atom_site_type_symbol
 _atom_site_label
 _atom_site_symmetry_multiplicity
 _atom_site_fract_x
 _atom_site_fract_y
 _atom_site_fract_z
 _atom_site_occupancy
  Ho  Ho0  1  0.93831700  0.87663400  0.75000000  1.0
  Ho  Ho1  1  0.06168300  0.12336600  0.25000000  1.0
  Ni  Ni2  1  0.21580900  0.43161800  0.75000000  1.0
  Ni  Ni3  1  0.78419100  0.56838200  0.25000000  1.0
