# generated using pymatgen
data_NdCr
_symmetry_space_group_name_H-M   'P 1'
_cell_length_a   5.75008500
_cell_length_b   6.16528200
_cell_length_c   6.16528214
_cell_angle_alpha   60.00000077
_cell_angle_beta   90.00000000
_cell_angle_gamma   90.00000000
_symmetry_Int_Tables_number   1
_chemical_formula_structural   NdCr
_chemical_formula_sum   'Nd2 Cr2'
_cell_volume   189.28264728
_cell_formula_units_Z   2
loop_
 _symmetry_equiv_pos_site_id
 _symmetry_equiv_pos_as_xyz
  1  'x, y, z'
loop_
 _atom_site_type_symbol
 _atom_site_label
 _atom_site_symmetry_multiplicity
 _atom_site_fract_x
 _atom_site_fract_y
 _atom_site_fract_z
 _atom_site_occupancy
  Nd  Nd0  1  0.25000000  0.33333333  0.33333333  1.0
  Nd  Nd1  1  0.75000000  0.66666667  0.66666667  1.0
  Cr  Cr2  1  0.50000000  0.00000000  0.00000000  1.0
  Cr  Cr3  1  0.00000000  0.00000000  0.00000000  1.0
