# generated using pymatgen
data_Co
_symmetry_space_group_name_H-M   'P 1'
_cell_length_a   4.11251700
_cell_length_b   5.19163145
_cell_length_c   5.19163145
_cell_angle_alpha   117.18580238
_cell_angle_beta   90.00000000
_cell_angle_gamma   90.00000000
_symmetry_Int_Tables_number   1
_chemical_formula_structural   Co
_chemical_formula_sum   Co5
_cell_volume   98.59975276
_cell_formula_units_Z   5
loop_
 _symmetry_equiv_pos_site_id
 _symmetry_equiv_pos_as_xyz
  1  'x, y, z'
loop_
 _atom_site_type_symbol
 _atom_site_label
 _atom_site_symmetry_multiplicity
 _atom_site_fract_x
 _atom_site_fract_y
 _atom_site_fract_z
 _atom_site_occupancy
  Co  Co0  1  0.49170100  0.50000000  0.50000000  1.0
  Co  Co1  1  0.49474400  0.00000000  0.50000000  1.0
  Co  Co2  1  0.49474400  0.50000000  0.00000000  1.0
  Co  Co3  1  0.98764200  0.36448400  0.63551600  1.0
  Co  Co4  1  0.98764200  0.63551600  0.36448400  1.0
