# generated using pymatgen
data_Fe
_symmetry_space_group_name_H-M   'P 1'
_cell_length_a   8.26022700
_cell_length_b   8.47974000
_cell_length_c   8.48210067
_cell_angle_alpha   119.99079393
_cell_angle_beta   90.00000000
_cell_angle_gamma   90.00000000
_symmetry_Int_Tables_number   1
_chemical_formula_structural   Fe
_chemical_formula_sum   Fe34
_cell_volume   514.57520229
_cell_formula_units_Z   34
loop_
 _symmetry_equiv_pos_site_id
 _symmetry_equiv_pos_as_xyz
  1  'x, y, z'
loop_
 _atom_site_type_symbol
 _atom_site_label
 _atom_site_symmetry_multiplicity
 _atom_site_fract_x
 _atom_site_fract_y
 _atom_site_fract_z
 _atom_site_occupancy
  Fe  Fe0  1  0.60677200  0.33333333  0.66666667  1.0
  Fe  Fe1  1  0.39322800  0.66666667  0.33333333  1.0
  Fe  Fe2  1  0.10677200  0.66666667  0.33333333  1.0
  Fe  Fe3  1  0.89322800  0.33333333  0.66666667  1.0
  Fe  Fe4  1  0.50000000  1.00000000  0.50000000  1.0
  Fe  Fe5  1  0.50000000  0.50000000  0.00000000  1.0
  Fe  Fe6  1  0.50000000  0.50000000  0.50000000  1.0
  Fe  Fe7  1  1.00000000  1.00000000  0.50000000  1.0
  Fe  Fe8  1  1.00000000  0.50000000  0.00000000  1.0
  Fe  Fe9  1  1.00000000  0.50000000  0.50000000  1.0
  Fe  Fe10  1  0.75000000  0.03986200  0.36942000  1.0
  Fe  Fe11  1  0.75000000  0.32969300  0.96014800  1.0
  Fe  Fe12  1  0.75000000  0.63060600  0.67047800  1.0
  Fe  Fe13  1  0.75000000  0.03987200  0.67047800  1.0
  Fe  Fe14  1  0.75000000  0.32955800  0.36942000  1.0
  Fe  Fe15  1  0.75000000  0.63045500  0.96014800  1.0
  Fe  Fe16  1  0.25000000  0.96013800  0.63058000  1.0
  Fe  Fe17  1  0.25000000  0.67030700  0.03985200  1.0
  Fe  Fe18  1  0.25000000  0.36939400  0.32952200  1.0
  Fe  Fe19  1  0.25000000  0.96012800  0.32952200  1.0
  Fe  Fe20  1  0.25000000  0.67044200  0.63058000  1.0
  Fe  Fe21  1  0.25000000  0.36954500  0.03985200  1.0
  Fe  Fe22  1  0.48436200  0.66746700  0.83392900  1.0
  Fe  Fe23  1  0.48435900  0.16624200  0.33248400  1.0
  Fe  Fe24  1  0.48436200  0.16646200  0.83392900  1.0
  Fe  Fe25  1  0.51563800  0.33253300  0.16607100  1.0
  Fe  Fe26  1  0.51564100  0.83375800  0.66751600  1.0
  Fe  Fe27  1  0.51563800  0.83353800  0.16607100  1.0
  Fe  Fe28  1  0.98436200  0.33253300  0.16607100  1.0
  Fe  Fe29  1  0.98435900  0.83375800  0.66751600  1.0
  Fe  Fe30  1  0.98436200  0.83353800  0.16607100  1.0
  Fe  Fe31  1  0.01563800  0.66746700  0.83392900  1.0
  Fe  Fe32  1  0.01564100  0.16624200  0.33248400  1.0
  Fe  Fe33  1  0.01563800  0.16646200  0.83392900  1.0
