# generated using pymatgen
data_ErFe7
_symmetry_space_group_name_H-M   'P 1'
_cell_length_a   8.18005500
_cell_length_b   8.30553400
_cell_length_c   8.30553449
_cell_angle_alpha   60.00000195
_cell_angle_beta   90.00000000
_cell_angle_gamma   90.00000000
_symmetry_Int_Tables_number   1
_chemical_formula_structural   ErFe7
_chemical_formula_sum   'Er4 Fe28'
_cell_volume   488.67712538
_cell_formula_units_Z   4
loop_
 _symmetry_equiv_pos_site_id
 _symmetry_equiv_pos_as_xyz
  1  'x, y, z'
loop_
 _atom_site_type_symbol
 _atom_site_label
 _atom_site_symmetry_multiplicity
 _atom_site_fract_x
 _atom_site_fract_y
 _atom_site_fract_z
 _atom_site_occupancy
  Er  Er0  1  0.75000000  0.00000000  0.00000000  1.0
  Er  Er1  1  0.25000000  0.00000000  0.00000000  1.0
  Er  Er2  1  0.25000000  0.33333333  0.33333333  1.0
  Er  Er3  1  0.75000000  0.66666667  0.66666667  1.0
  Fe  Fe4  1  0.60981900  0.33333333  0.33333333  1.0
  Fe  Fe5  1  0.39018100  0.66666667  0.66666667  1.0
  Fe  Fe6  1  0.10981900  0.66666667  0.66666667  1.0
  Fe  Fe7  1  0.89018100  0.33333333  0.33333333  1.0
  Fe  Fe8  1  0.75000000  0.64217600  0.02793500  1.0
  Fe  Fe9  1  0.75000000  0.02793500  0.32988900  1.0
  Fe  Fe10  1  0.75000000  0.32988900  0.64217600  1.0
  Fe  Fe11  1  0.75000000  0.32988900  0.02793500  1.0
  Fe  Fe12  1  0.75000000  0.64217600  0.32988900  1.0
  Fe  Fe13  1  0.75000000  0.02793500  0.64217600  1.0
  Fe  Fe14  1  0.25000000  0.35782400  0.97206500  1.0
  Fe  Fe15  1  0.25000000  0.97206500  0.67011100  1.0
  Fe  Fe16  1  0.25000000  0.67011100  0.35782400  1.0
  Fe  Fe17  1  0.25000000  0.67011100  0.97206500  1.0
  Fe  Fe18  1  0.25000000  0.35782400  0.67011100  1.0
  Fe  Fe19  1  0.25000000  0.97206500  0.35782400  1.0
  Fe  Fe20  1  0.48686300  0.16794800  0.66410400  1.0
  Fe  Fe21  1  0.48686300  0.66410500  0.16794700  1.0
  Fe  Fe22  1  0.48686300  0.16794800  0.16794700  1.0
  Fe  Fe23  1  0.51313700  0.83205200  0.33589600  1.0
  Fe  Fe24  1  0.51313700  0.33589500  0.83205300  1.0
  Fe  Fe25  1  0.51313700  0.83205200  0.83205300  1.0
  Fe  Fe26  1  0.98686300  0.83205200  0.33589600  1.0
  Fe  Fe27  1  0.98686300  0.33589500  0.83205300  1.0
  Fe  Fe28  1  0.98686300  0.83205200  0.83205300  1.0
  Fe  Fe29  1  0.01313700  0.16794800  0.66410400  1.0
  Fe  Fe30  1  0.01313700  0.66410500  0.16794700  1.0
  Fe  Fe31  1  0.01313700  0.16794800  0.16794700  1.0
