# generated using pymatgen
data_GdPd
_symmetry_space_group_name_H-M   'P 1'
_cell_length_a   4.15326200
_cell_length_b   7.16565400
_cell_length_c   7.16565365
_cell_angle_alpha   120.00000160
_cell_angle_beta   90.00000000
_cell_angle_gamma   90.00000000
_symmetry_Int_Tables_number   1
_chemical_formula_structural   GdPd
_chemical_formula_sum   'Gd3 Pd3'
_cell_volume   184.68498984
_cell_formula_units_Z   3
loop_
 _symmetry_equiv_pos_site_id
 _symmetry_equiv_pos_as_xyz
  1  'x, y, z'
loop_
 _atom_site_type_symbol
 _atom_site_label
 _atom_site_symmetry_multiplicity
 _atom_site_fract_x
 _atom_site_fract_y
 _atom_site_fract_z
 _atom_site_occupancy
  Gd  Gd0  1  0.50000000  1.00000000  0.58246700  1.0
  Gd  Gd1  1  0.50000000  0.58246700  1.00000000  1.0
  Gd  Gd2  1  0.50000000  0.41753300  0.41753300  1.0
  Pd  Pd3  1  0.00000000  0.66666667  0.33333333  1.0
  Pd  Pd4  1  1.00000000  0.33333333  0.66666667  1.0
  Pd  Pd5  1  0.50000000  0.00000000  0.00000000  1.0
