# generated using pymatgen
data_CeCr
_symmetry_space_group_name_H-M   'P 1'
_cell_length_a   6.14434500
_cell_length_b   6.27985800
_cell_length_c   12.93642700
_cell_angle_alpha   90.00000000
_cell_angle_beta   90.00000000
_cell_angle_gamma   90.00000000
_symmetry_Int_Tables_number   1
_chemical_formula_structural   CeCr
_chemical_formula_sum   'Ce4 Cr4'
_cell_volume   499.15998009
_cell_formula_units_Z   4
loop_
 _symmetry_equiv_pos_site_id
 _symmetry_equiv_pos_as_xyz
  1  'x, y, z'
loop_
 _atom_site_type_symbol
 _atom_site_label
 _atom_site_symmetry_multiplicity
 _atom_site_fract_x
 _atom_site_fract_y
 _atom_site_fract_z
 _atom_site_occupancy
  Ce  Ce0  1  0.25000000  0.50341600  0.30774500  1.0
  Ce  Ce1  1  0.75000000  0.49658400  0.69225500  1.0
  Ce  Ce2  1  0.25000000  0.00341600  0.69225500  1.0
  Ce  Ce3  1  0.75000000  0.99658400  0.30774500  1.0
  Cr  Cr4  1  0.00000000  0.75000000  0.90582300  1.0
  Cr  Cr5  1  0.00000000  0.25000000  0.09417700  1.0
  Cr  Cr6  1  0.50000000  0.25000000  0.09417700  1.0
  Cr  Cr7  1  0.50000000  0.75000000  0.90582300  1.0
