# generated using pymatgen
data_Ho2Fe17
_symmetry_space_group_name_H-M   'P 1'
_cell_length_a   8.24186400
_cell_length_b   8.48199000
_cell_length_c   8.48199016
_cell_angle_alpha   60.00000062
_cell_angle_beta   90.00000000
_cell_angle_gamma   90.00000000
_symmetry_Int_Tables_number   1
_chemical_formula_structural   Ho2Fe17
_chemical_formula_sum   'Ho4 Fe34'
_cell_volume   513.51318461
_cell_formula_units_Z   2
loop_
 _symmetry_equiv_pos_site_id
 _symmetry_equiv_pos_as_xyz
  1  'x, y, z'
loop_
 _atom_site_type_symbol
 _atom_site_label
 _atom_site_symmetry_multiplicity
 _atom_site_fract_x
 _atom_site_fract_y
 _atom_site_fract_z
 _atom_site_occupancy
  Ho  Ho0  1  0.75000000  0.00000000  0.00000000  1.0
  Ho  Ho1  1  0.25000000  0.00000000  0.00000000  1.0
  Ho  Ho2  1  0.25000000  0.33333333  0.33333333  1.0
  Ho  Ho3  1  0.75000000  0.66666667  0.66666667  1.0
  Fe  Fe4  1  0.60636900  0.33333333  0.33333333  1.0
  Fe  Fe5  1  0.39363100  0.66666667  0.66666667  1.0
  Fe  Fe6  1  0.10636900  0.66666667  0.66666667  1.0
  Fe  Fe7  1  0.89363100  0.33333333  0.33333333  1.0
  Fe  Fe8  1  0.50000000  0.50000000  0.00000000  1.0
  Fe  Fe9  1  0.50000000  0.00000000  0.50000000  1.0
  Fe  Fe10  1  0.50000000  0.50000000  0.50000000  1.0
  Fe  Fe11  1  0.00000000  0.50000000  0.00000000  1.0
  Fe  Fe12  1  0.00000000  0.00000000  0.50000000  1.0
  Fe  Fe13  1  0.00000000  0.50000000  0.50000000  1.0
  Fe  Fe14  1  0.75000000  0.63210000  0.03896500  1.0
  Fe  Fe15  1  0.75000000  0.03896500  0.32893500  1.0
  Fe  Fe16  1  0.75000000  0.32893500  0.63210000  1.0
  Fe  Fe17  1  0.75000000  0.32893500  0.03896500  1.0
  Fe  Fe18  1  0.75000000  0.63210000  0.32893500  1.0
  Fe  Fe19  1  0.75000000  0.03896500  0.63210000  1.0
  Fe  Fe20  1  0.25000000  0.36790000  0.96103500  1.0
  Fe  Fe21  1  0.25000000  0.96103500  0.67106500  1.0
  Fe  Fe22  1  0.25000000  0.67106500  0.36790000  1.0
  Fe  Fe23  1  0.25000000  0.67106500  0.96103500  1.0
  Fe  Fe24  1  0.25000000  0.36790000  0.67106500  1.0
  Fe  Fe25  1  0.25000000  0.96103500  0.36790000  1.0
  Fe  Fe26  1  0.48431100  0.16602700  0.66794600  1.0
  Fe  Fe27  1  0.48431100  0.66794500  0.16602800  1.0
  Fe  Fe28  1  0.48431100  0.16602700  0.16602800  1.0
  Fe  Fe29  1  0.51568900  0.83397300  0.33205400  1.0
  Fe  Fe30  1  0.51568900  0.33205500  0.83397200  1.0
  Fe  Fe31  1  0.51568900  0.83397300  0.83397200  1.0
  Fe  Fe32  1  0.98431100  0.83397300  0.33205400  1.0
  Fe  Fe33  1  0.98431100  0.33205500  0.83397200  1.0
  Fe  Fe34  1  0.98431100  0.83397300  0.83397200  1.0
  Fe  Fe35  1  0.01568900  0.16602700  0.66794600  1.0
  Fe  Fe36  1  0.01568900  0.66794500  0.16602800  1.0
  Fe  Fe37  1  0.01568900  0.16602700  0.16602800  1.0
