# generated using pymatgen
data_MnFe
_symmetry_space_group_name_H-M   'P 1'
_cell_length_a   5.09604400
_cell_length_b   5.15177133
_cell_length_c   5.15177133
_cell_angle_alpha   60.76242328
_cell_angle_beta   60.35718697
_cell_angle_gamma   60.35718697
_symmetry_Int_Tables_number   1
_chemical_formula_structural   MnFe
_chemical_formula_sum   'Mn2 Fe2'
_cell_volume   96.69904232
_cell_formula_units_Z   2
loop_
 _symmetry_equiv_pos_site_id
 _symmetry_equiv_pos_as_xyz
  1  'x, y, z'
loop_
 _atom_site_type_symbol
 _atom_site_label
 _atom_site_symmetry_multiplicity
 _atom_site_fract_x
 _atom_site_fract_y
 _atom_site_fract_z
 _atom_site_occupancy
  Mn  Mn0  1  0.50000000  0.50000000  0.50000000  1.0
  Mn  Mn1  1  0.50000000  0.00000000  1.00000000  1.0
  Fe  Fe2  1  0.00000000  0.50000000  1.00000000  1.0
  Fe  Fe3  1  0.50000000  0.50000000  0.00000000  1.0
