# generated using pymatgen
data_Dy
_symmetry_space_group_name_H-M   'P 1'
_cell_length_a   7.61133300
_cell_length_b   8.23744200
_cell_length_c   8.23744200
_cell_angle_alpha   90.00000000
_cell_angle_beta   90.00000000
_cell_angle_gamma   90.00000000
_symmetry_Int_Tables_number   1
_chemical_formula_structural   Dy
_chemical_formula_sum   Dy12
_cell_volume   516.47043117
_cell_formula_units_Z   12
loop_
 _symmetry_equiv_pos_site_id
 _symmetry_equiv_pos_as_xyz
  1  'x, y, z'
loop_
 _atom_site_type_symbol
 _atom_site_label
 _atom_site_symmetry_multiplicity
 _atom_site_fract_x
 _atom_site_fract_y
 _atom_site_fract_z
 _atom_site_occupancy
  Dy  Dy0  1  0.25000000  0.50000000  0.00000000  1.0
  Dy  Dy1  1  0.75000000  0.00000000  0.50000000  1.0
  Dy  Dy2  1  0.75000000  0.50000000  0.00000000  1.0
  Dy  Dy3  1  0.25000000  0.00000000  0.50000000  1.0
  Dy  Dy4  1  0.50000000  0.84886300  0.15113700  1.0
  Dy  Dy5  1  0.50000000  0.15113700  0.84886300  1.0
  Dy  Dy6  1  1.00000000  0.34886300  0.34886300  1.0
  Dy  Dy7  1  1.00000000  0.65113700  0.65113700  1.0
  Dy  Dy8  1  0.50000000  0.70011500  0.70011500  1.0
  Dy  Dy9  1  0.50000000  0.29988500  0.29988500  1.0
  Dy  Dy10  1  0.00000000  0.20011500  0.79988500  1.0
  Dy  Dy11  1  0.00000000  0.79988500  0.20011500  1.0
