# generated using pymatgen
data_Co
_symmetry_space_group_name_H-M   'P 1'
_cell_length_a   4.09641400
_cell_length_b   11.33571600
_cell_length_c   11.33571598
_cell_angle_alpha   120.00000007
_cell_angle_beta   90.00000000
_cell_angle_gamma   90.00000000
_symmetry_Int_Tables_number   1
_chemical_formula_structural   Co
_chemical_formula_sum   Co9
_cell_volume   455.86094448
_cell_formula_units_Z   9
loop_
 _symmetry_equiv_pos_site_id
 _symmetry_equiv_pos_as_xyz
  1  'x, y, z'
loop_
 _atom_site_type_symbol
 _atom_site_label
 _atom_site_symmetry_multiplicity
 _atom_site_fract_x
 _atom_site_fract_y
 _atom_site_fract_z
 _atom_site_occupancy
  Co  Co0  1  0.74871300  0.66666667  0.33333333  1.0
  Co  Co1  1  0.25128700  0.33333333  0.66666667  1.0
  Co  Co2  1  0.74874600  0.44168600  0.28352000  1.0
  Co  Co3  1  0.74874600  0.71648000  0.15816600  1.0
  Co  Co4  1  0.74874600  0.84183400  0.55831400  1.0
  Co  Co5  1  0.25125400  0.55831400  0.71648000  1.0
  Co  Co6  1  0.25125400  0.28352000  0.84183400  1.0
  Co  Co7  1  0.25125400  0.15816600  0.44168600  1.0
  Co  Co8  1  0.50000000  0.00000000  0.00000000  1.0
