# generated using pymatgen
data_Nb
_symmetry_space_group_name_H-M   'P 1'
_cell_length_a   4.05802500
_cell_length_b   12.67923289
_cell_length_c   12.67923289
_cell_angle_alpha   89.83710881
_cell_angle_beta   90.00000000
_cell_angle_gamma   90.00000000
_symmetry_Int_Tables_number   1
_chemical_formula_structural   Nb
_chemical_formula_sum   Nb10
_cell_volume   652.37742024
_cell_formula_units_Z   10
loop_
 _symmetry_equiv_pos_site_id
 _symmetry_equiv_pos_as_xyz
  1  'x, y, z'
loop_
 _atom_site_type_symbol
 _atom_site_label
 _atom_site_symmetry_multiplicity
 _atom_site_fract_x
 _atom_site_fract_y
 _atom_site_fract_z
 _atom_site_occupancy
  Nb  Nb0  1  0.46963900  0.07652000  0.71222300  1.0
  Nb  Nb1  1  0.46963900  0.92348000  0.28777700  1.0
  Nb  Nb2  1  0.46831500  0.57623000  0.78893700  1.0
  Nb  Nb3  1  0.46831500  0.42377000  0.21106300  1.0
  Nb  Nb4  1  0.46831500  0.78893700  0.57623000  1.0
  Nb  Nb5  1  0.46831500  0.21106300  0.42377000  1.0
  Nb  Nb6  1  0.46963900  0.71222300  0.07652000  1.0
  Nb  Nb7  1  0.46963900  0.28777700  0.92348000  1.0
  Nb  Nb8  1  0.44904400  0.00000000  0.00000000  1.0
  Nb  Nb9  1  0.45959300  0.50000000  0.50000000  1.0
