# generated using pymatgen
data_FeRe
_symmetry_space_group_name_H-M   'P 1'
_cell_length_a   5.76700043
_cell_length_b   5.76697329
_cell_length_c   5.77013621
_cell_angle_alpha   119.97060876
_cell_angle_beta   119.97008785
_cell_angle_gamma   90.01392405
_symmetry_Int_Tables_number   1
_chemical_formula_structural   FeRe
_chemical_formula_sum   'Fe1 Re1'
_cell_volume   135.80169818
_cell_formula_units_Z   1
loop_
 _symmetry_equiv_pos_site_id
 _symmetry_equiv_pos_as_xyz
  1  'x, y, z'
loop_
 _atom_site_type_symbol
 _atom_site_label
 _atom_site_symmetry_multiplicity
 _atom_site_fract_x
 _atom_site_fract_y
 _atom_site_fract_z
 _atom_site_occupancy
  Fe  Fe0  1  0.99999900  0.00000100  0.00000100  1.0
  Re  Re1  1  0.49999800  0.49999800  0.99999600  1.0
