# generated using pymatgen
data_Ce
_symmetry_space_group_name_H-M   'P 1'
_cell_length_a   4.35492200
_cell_length_b   8.46336488
_cell_length_c   8.46336488
_cell_angle_alpha   72.38278162
_cell_angle_beta   75.09122661
_cell_angle_gamma   75.09122660
_symmetry_Int_Tables_number   1
_chemical_formula_structural   Ce
_chemical_formula_sum   Ce3
_cell_volume   281.79474781
_cell_formula_units_Z   3
loop_
 _symmetry_equiv_pos_site_id
 _symmetry_equiv_pos_as_xyz
  1  'x, y, z'
loop_
 _atom_site_type_symbol
 _atom_site_label
 _atom_site_symmetry_multiplicity
 _atom_site_fract_x
 _atom_site_fract_y
 _atom_site_fract_z
 _atom_site_occupancy
  Ce  Ce0  1  0.31668400  0.68331600  0.68331600  1.0
  Ce  Ce1  1  0.68331600  0.31668400  0.31668400  1.0
  Ce  Ce2  1  0.00000000  0.00000000  0.00000000  1.0
