# generated using pymatgen
data_Ir
_symmetry_space_group_name_H-M   'P 1'
_cell_length_a   7.81537200
_cell_length_b   7.86830057
_cell_length_c   15.47705750
_cell_angle_alpha   81.85123504
_cell_angle_beta   84.69344124
_cell_angle_gamma   89.02313627
_symmetry_Int_Tables_number   1
_chemical_formula_structural   Ir
_chemical_formula_sum   Ir8
_cell_volume   938.08673318
_cell_formula_units_Z   8
loop_
 _symmetry_equiv_pos_site_id
 _symmetry_equiv_pos_as_xyz
  1  'x, y, z'
loop_
 _atom_site_type_symbol
 _atom_site_label
 _atom_site_symmetry_multiplicity
 _atom_site_fract_x
 _atom_site_fract_y
 _atom_site_fract_z
 _atom_site_occupancy
  Ir  Ir0  1  0.54891100  0.78305400  0.67846000  1.0
  Ir  Ir1  1  0.75998900  0.10122100  0.17423500  1.0
  Ir  Ir2  1  0.87961400  0.83729100  0.10787500  1.0
  Ir  Ir3  1  0.62013300  0.12449700  0.83033800  1.0
  Ir  Ir4  1  0.66437800  0.80084800  0.24204100  1.0
  Ir  Ir5  1  0.36565300  0.02538500  0.91690000  1.0
  Ir  Ir6  1  0.92541400  0.85525100  0.55731500  1.0
  Ir  Ir7  1  0.19949400  0.89440500  0.59680700  1.0
