# generated using pymatgen
data_Ni
_symmetry_space_group_name_H-M   'P 1'
_cell_length_a   4.11894400
_cell_length_b   4.17225400
_cell_length_c   12.15529075
_cell_angle_alpha   99.88219490
_cell_angle_beta   99.75468492
_cell_angle_gamma   90.00000001
_symmetry_Int_Tables_number   1
_chemical_formula_structural   Ni
_chemical_formula_sum   Ni4
_cell_volume   202.72640272
_cell_formula_units_Z   4
loop_
 _symmetry_equiv_pos_site_id
 _symmetry_equiv_pos_as_xyz
  1  'x, y, z'
loop_
 _atom_site_type_symbol
 _atom_site_label
 _atom_site_symmetry_multiplicity
 _atom_site_fract_x
 _atom_site_fract_y
 _atom_site_fract_z
 _atom_site_occupancy
  Ni  Ni0  1  0.75149800  0.75149800  0.50299600  1.0
  Ni  Ni1  1  0.24850200  0.24850200  0.49700400  1.0
  Ni  Ni2  1  0.90042100  0.40042100  0.80084200  1.0
  Ni  Ni3  1  0.09957900  0.59957900  0.19915800  1.0
