# generated using pymatgen
data_Ho
_symmetry_space_group_name_H-M   'P 1'
_cell_length_a   7.63571700
_cell_length_b   7.71186000
_cell_length_c   14.68666800
_cell_angle_alpha   90.00000000
_cell_angle_beta   90.00000000
_cell_angle_gamma   90.00000000
_symmetry_Int_Tables_number   1
_chemical_formula_structural   Ho
_chemical_formula_sum   Ho20
_cell_volume   864.83297084
_cell_formula_units_Z   20
loop_
 _symmetry_equiv_pos_site_id
 _symmetry_equiv_pos_as_xyz
  1  'x, y, z'
loop_
 _atom_site_type_symbol
 _atom_site_label
 _atom_site_symmetry_multiplicity
 _atom_site_fract_x
 _atom_site_fract_y
 _atom_site_fract_z
 _atom_site_occupancy
  Ho  Ho0  1  0.71171900  0.49745300  0.75000000  1.0
  Ho  Ho1  1  0.28828100  0.50254700  0.25000000  1.0
  Ho  Ho2  1  0.21171900  0.00254700  0.75000000  1.0
  Ho  Ho3  1  0.78828100  0.99745300  0.25000000  1.0
  Ho  Ho4  1  0.46790000  0.17649400  0.39816500  1.0
  Ho  Ho5  1  0.53210000  0.82350600  0.89816500  1.0
  Ho  Ho6  1  0.53210000  0.82350600  0.60183500  1.0
  Ho  Ho7  1  0.46790000  0.17649400  0.10183500  1.0
  Ho  Ho8  1  0.96790000  0.32350600  0.39816500  1.0
  Ho  Ho9  1  0.03210000  0.67649400  0.89816500  1.0
  Ho  Ho10  1  0.03210000  0.67649400  0.60183500  1.0
  Ho  Ho11  1  0.96790000  0.32350600  0.10183500  1.0
  Ho  Ho12  1  0.87927600  0.16306600  0.88195800  1.0
  Ho  Ho13  1  0.12072400  0.83693400  0.38195800  1.0
  Ho  Ho14  1  0.12072400  0.83693400  0.11804200  1.0
  Ho  Ho15  1  0.87927600  0.16306600  0.61804200  1.0
  Ho  Ho16  1  0.37927600  0.33693400  0.88195800  1.0
  Ho  Ho17  1  0.62072400  0.66306600  0.38195800  1.0
  Ho  Ho18  1  0.62072400  0.66306600  0.11804200  1.0
  Ho  Ho19  1  0.37927600  0.33693400  0.61804200  1.0
