# generated using pymatgen
data_Fe
_symmetry_space_group_name_H-M   'P 1'
_cell_length_a   8.24171300
_cell_length_b   8.54824400
_cell_length_c   8.54824447
_cell_angle_alpha   119.99999820
_cell_angle_beta   90.00000000
_cell_angle_gamma   90.00000000
_symmetry_Int_Tables_number   1
_chemical_formula_structural   Fe
_chemical_formula_sum   Fe34
_cell_volume   521.55723102
_cell_formula_units_Z   34
loop_
 _symmetry_equiv_pos_site_id
 _symmetry_equiv_pos_as_xyz
  1  'x, y, z'
loop_
 _atom_site_type_symbol
 _atom_site_label
 _atom_site_symmetry_multiplicity
 _atom_site_fract_x
 _atom_site_fract_y
 _atom_site_fract_z
 _atom_site_occupancy
  Fe  Fe0  1  0.75000000  0.67087700  0.04758800  1.0
  Fe  Fe1  1  0.25000000  0.32912300  0.95241200  1.0
  Fe  Fe2  1  0.75000000  0.37671100  0.32912300  1.0
  Fe  Fe3  1  0.25000000  0.32912300  0.37671100  1.0
  Fe  Fe4  1  0.25000000  0.62328900  0.67087700  1.0
  Fe  Fe5  1  0.75000000  0.67087700  0.62328900  1.0
  Fe  Fe6  1  0.75000000  0.95241200  0.62328900  1.0
  Fe  Fe7  1  0.25000000  0.62328900  0.95241200  1.0
  Fe  Fe8  1  0.25000000  0.04758800  0.37671100  1.0
  Fe  Fe9  1  0.75000000  0.37671100  0.04758800  1.0
  Fe  Fe10  1  0.25000000  0.04758800  0.67087700  1.0
  Fe  Fe11  1  0.75000000  0.95241200  0.32912300  1.0
  Fe  Fe12  1  0.39448100  0.33333333  0.66666667  1.0
  Fe  Fe13  1  0.60551900  0.66666667  0.33333333  1.0
  Fe  Fe14  1  0.89448100  0.66666667  0.33333333  1.0
  Fe  Fe15  1  0.10551900  0.33333333  0.66666667  1.0
  Fe  Fe16  1  0.98443200  0.16687300  0.33374600  1.0
  Fe  Fe17  1  0.01556800  0.83312700  0.66625400  1.0
  Fe  Fe18  1  0.98443200  0.16687300  0.83312600  1.0
  Fe  Fe19  1  0.48443200  0.83312700  0.66625400  1.0
  Fe  Fe20  1  0.01556800  0.83312700  0.16687400  1.0
  Fe  Fe21  1  0.51556800  0.16687300  0.33374600  1.0
  Fe  Fe22  1  0.98443200  0.66625300  0.83312600  1.0
  Fe  Fe23  1  0.48443200  0.83312700  0.16687400  1.0
  Fe  Fe24  1  0.01556800  0.33374700  0.16687400  1.0
  Fe  Fe25  1  0.51556800  0.16687300  0.83312600  1.0
  Fe  Fe26  1  0.48443200  0.33374700  0.16687400  1.0
  Fe  Fe27  1  0.51556800  0.66625300  0.83312600  1.0
  Fe  Fe28  1  0.00000000  0.50000000  1.00000000  1.0
  Fe  Fe29  1  0.00000000  0.50000000  0.50000000  1.0
  Fe  Fe30  1  0.50000000  0.50000000  0.00000000  1.0
  Fe  Fe31  1  0.00000000  0.00000000  0.50000000  1.0
  Fe  Fe32  1  0.50000000  0.50000000  0.50000000  1.0
  Fe  Fe33  1  0.50000000  0.00000000  0.50000000  1.0
