# generated using pymatgen
data_FeRePb2
_symmetry_space_group_name_H-M   'P 1'
_cell_length_a   5.68459619
_cell_length_b   5.68782077
_cell_length_c   5.68811421
_cell_angle_alpha   119.90147913
_cell_angle_beta   90.15465703
_cell_angle_gamma   119.89512185
_symmetry_Int_Tables_number   1
_chemical_formula_structural   FeRePb2
_chemical_formula_sum   'Fe1 Re1 Pb2'
_cell_volume   130.27037256
_cell_formula_units_Z   1
loop_
 _symmetry_equiv_pos_site_id
 _symmetry_equiv_pos_as_xyz
  1  'x, y, z'
loop_
 _atom_site_type_symbol
 _atom_site_label
 _atom_site_symmetry_multiplicity
 _atom_site_fract_x
 _atom_site_fract_y
 _atom_site_fract_z
 _atom_site_occupancy
  Fe  Fe0  1  0.50994900  0.02003200  0.51021700  1.0
  Re  Re1  1  0.00438600  0.00866400  0.00423600  1.0
  Pb  Pb2  1  0.27750400  0.55465800  0.77680400  1.0
  Pb  Pb3  1  0.77693300  0.55482200  0.27786400  1.0
