# generated using pymatgen
data_Mn
_symmetry_space_group_name_H-M   'P 1'
_cell_length_a   8.37732173
_cell_length_b   8.37732173
_cell_length_c   8.37732173
_cell_angle_alpha   60.00000000
_cell_angle_beta   60.00000000
_cell_angle_gamma   60.00000000
_symmetry_Int_Tables_number   1
_chemical_formula_structural   Mn
_chemical_formula_sum   Mn23
_cell_volume   415.71968212
_cell_formula_units_Z   23
loop_
 _symmetry_equiv_pos_site_id
 _symmetry_equiv_pos_as_xyz
  1  'x, y, z'
loop_
 _atom_site_type_symbol
 _atom_site_label
 _atom_site_symmetry_multiplicity
 _atom_site_fract_x
 _atom_site_fract_y
 _atom_site_fract_z
 _atom_site_occupancy
  Mn  Mn0  1  0.00000000  0.00000000  0.00000000  1.0
  Mn  Mn1  1  0.50000000  0.50000000  0.00000000  1.0
  Mn  Mn2  1  0.00000000  0.50000000  0.50000000  1.0
  Mn  Mn3  1  1.00000000  0.50000000  1.00000000  1.0
  Mn  Mn4  1  0.00000000  0.00000000  0.50000000  1.0
  Mn  Mn5  1  0.50000000  0.00000000  1.00000000  1.0
  Mn  Mn6  1  0.50000000  0.00000000  0.50000000  1.0
  Mn  Mn7  1  0.12144400  0.63566800  0.12144400  1.0
  Mn  Mn8  1  0.12144400  0.12144400  0.12144400  1.0
  Mn  Mn9  1  0.12144400  0.12144400  0.63566800  1.0
  Mn  Mn10  1  0.63566800  0.12144400  0.12144400  1.0
  Mn  Mn11  1  0.87855600  0.36433200  0.87855600  1.0
  Mn  Mn12  1  0.87855600  0.87855600  0.87855600  1.0
  Mn  Mn13  1  0.87855600  0.87855600  0.36433200  1.0
  Mn  Mn14  1  0.36433200  0.87855600  0.87855600  1.0
  Mn  Mn15  1  0.32348900  0.02953300  0.32348900  1.0
  Mn  Mn16  1  0.32348900  0.32348900  0.32348900  1.0
  Mn  Mn17  1  0.32348900  0.32348900  0.02953300  1.0
  Mn  Mn18  1  0.02953300  0.32348900  0.32348900  1.0
  Mn  Mn19  1  0.67651100  0.97046700  0.67651100  1.0
  Mn  Mn20  1  0.67651100  0.67651100  0.67651100  1.0
  Mn  Mn21  1  0.67651100  0.67651100  0.97046700  1.0
  Mn  Mn22  1  0.97046700  0.67651100  0.67651100  1.0
