# generated using pymatgen
data_Tb12Co7
_symmetry_space_group_name_H-M   'P 1'
_cell_length_a   8.31890700
_cell_length_b   9.21879975
_cell_length_c   11.30359800
_cell_angle_alpha   90.00000000
_cell_angle_beta   90.00000000
_cell_angle_gamma   101.81768870
_symmetry_Int_Tables_number   1
_chemical_formula_structural   Tb12Co7
_chemical_formula_sum   'Tb24 Co14'
_cell_volume   848.50261033
_cell_formula_units_Z   2
loop_
 _symmetry_equiv_pos_site_id
 _symmetry_equiv_pos_as_xyz
  1  'x, y, z'
loop_
 _atom_site_type_symbol
 _atom_site_label
 _atom_site_symmetry_multiplicity
 _atom_site_fract_x
 _atom_site_fract_y
 _atom_site_fract_z
 _atom_site_occupancy
  Tb  Tb0  1  0.77307700  0.53921300  0.70560000  1.0
  Tb  Tb1  1  0.72692300  0.96078700  0.20560000  1.0
  Tb  Tb2  1  0.16045800  0.65843700  0.84042500  1.0
  Tb  Tb3  1  0.33954200  0.84156300  0.34042500  1.0
  Tb  Tb4  1  0.83954200  0.34156300  0.15957500  1.0
  Tb  Tb5  1  0.66045800  0.15843700  0.65957500  1.0
  Tb  Tb6  1  0.19541600  0.35352800  0.00355500  1.0
  Tb  Tb7  1  0.30458400  0.14647200  0.50355500  1.0
  Tb  Tb8  1  0.80458400  0.64647200  0.99644500  1.0
  Tb  Tb9  1  0.69541600  0.85352800  0.49644500  1.0
  Tb  Tb10  1  0.27307700  0.03921300  0.79440000  1.0
  Tb  Tb11  1  0.22692300  0.46078700  0.29440000  1.0
  Tb  Tb12  1  0.85347600  0.08562300  0.92851400  1.0
  Tb  Tb13  1  0.64652400  0.41437700  0.42851400  1.0
  Tb  Tb14  1  0.14652400  0.91437700  0.07148600  1.0
  Tb  Tb15  1  0.35347600  0.58562300  0.57148600  1.0
  Tb  Tb16  1  0.92499900  0.67638500  0.30083100  1.0
  Tb  Tb17  1  0.57500100  0.82361500  0.80083100  1.0
  Tb  Tb18  1  0.07500100  0.32361500  0.69916900  1.0
  Tb  Tb19  1  0.42499900  0.17638500  0.19916900  1.0
  Tb  Tb20  1  0.57085600  0.30873400  0.93033400  1.0
  Tb  Tb21  1  0.92914400  0.19126600  0.43033400  1.0
  Tb  Tb22  1  0.42914400  0.69126600  0.06966600  1.0
  Tb  Tb23  1  0.07085600  0.80873400  0.56966600  1.0
  Co  Co24  1  0.00000000  0.50000000  0.50000000  1.0
  Co  Co25  1  0.50000000  0.00000000  0.00000000  1.0
  Co  Co26  1  0.93368500  0.02766200  0.67839000  1.0
  Co  Co27  1  0.56631500  0.47233800  0.17839000  1.0
  Co  Co28  1  0.06631500  0.97233800  0.32161000  1.0
  Co  Co29  1  0.43368500  0.52766200  0.82161000  1.0
  Co  Co30  1  0.59532000  0.09973000  0.40033100  1.0
  Co  Co31  1  0.90468000  0.40027000  0.90033100  1.0
  Co  Co32  1  0.40468000  0.90027000  0.59966900  1.0
  Co  Co33  1  0.09532000  0.59973000  0.09966900  1.0
  Co  Co34  1  0.93997100  0.84108600  0.81079800  1.0
  Co  Co35  1  0.56002900  0.65891400  0.31079800  1.0
  Co  Co36  1  0.06002900  0.15891400  0.18920200  1.0
  Co  Co37  1  0.43997100  0.34108600  0.68920200  1.0
