# generated using pymatgen
data_UPd
_symmetry_space_group_name_H-M   'P 1'
_cell_length_a   4.51563900
_cell_length_b   6.69312700
_cell_length_c   7.71707600
_cell_angle_alpha   90.00000000
_cell_angle_beta   90.00000000
_cell_angle_gamma   90.00000000
_symmetry_Int_Tables_number   1
_chemical_formula_structural   UPd
_chemical_formula_sum   'U4 Pd4'
_cell_volume   233.23893959
_cell_formula_units_Z   4
loop_
 _symmetry_equiv_pos_site_id
 _symmetry_equiv_pos_as_xyz
  1  'x, y, z'
loop_
 _atom_site_type_symbol
 _atom_site_label
 _atom_site_symmetry_multiplicity
 _atom_site_fract_x
 _atom_site_fract_y
 _atom_site_fract_z
 _atom_site_occupancy
  U  U0  1  0.25000000  0.99571700  0.78339200  1.0
  U  U1  1  0.25000000  0.49571700  0.71660800  1.0
  U  U2  1  0.75000000  0.00428300  0.21660800  1.0
  U  U3  1  0.75000000  0.50428300  0.28339200  1.0
  Pd  Pd4  1  0.25000000  0.19807900  0.41889900  1.0
  Pd  Pd5  1  0.25000000  0.69807900  0.08110100  1.0
  Pd  Pd6  1  0.75000000  0.80192100  0.58110100  1.0
  Pd  Pd7  1  0.75000000  0.30192100  0.91889900  1.0
