# generated using pymatgen
data_Mn
_symmetry_space_group_name_H-M   'P 1'
_cell_length_a   2.91700700
_cell_length_b   8.62749600
_cell_length_c   10.38883400
_cell_angle_alpha   90.00000000
_cell_angle_beta   90.00000000
_cell_angle_gamma   90.00000000
_symmetry_Int_Tables_number   1
_chemical_formula_structural   Mn
_chemical_formula_sum   Mn8
_cell_volume   261.45023997
_cell_formula_units_Z   8
loop_
 _symmetry_equiv_pos_site_id
 _symmetry_equiv_pos_as_xyz
  1  'x, y, z'
loop_
 _atom_site_type_symbol
 _atom_site_label
 _atom_site_symmetry_multiplicity
 _atom_site_fract_x
 _atom_site_fract_y
 _atom_site_fract_z
 _atom_site_occupancy
  Mn  Mn0  1  0.75000000  0.94452300  0.88529400  1.0
  Mn  Mn1  1  0.75000000  0.44452300  0.61470600  1.0
  Mn  Mn2  1  0.25000000  0.05547700  0.11470600  1.0
  Mn  Mn3  1  0.25000000  0.55547700  0.38529400  1.0
  Mn  Mn4  1  0.75000000  0.91621400  0.39861200  1.0
  Mn  Mn5  1  0.25000000  0.58378600  0.89861200  1.0
  Mn  Mn6  1  0.75000000  0.41621400  0.10138800  1.0
  Mn  Mn7  1  0.25000000  0.08378600  0.60138800  1.0
