# generated using pymatgen
data_TiMn
_symmetry_space_group_name_H-M   'P 1'
_cell_length_a   5.35775150
_cell_length_b   5.35782900
_cell_length_c   5.41529578
_cell_angle_alpha   119.65115030
_cell_angle_beta   119.65066889
_cell_angle_gamma   89.99803232
_symmetry_Int_Tables_number   1
_chemical_formula_structural   TiMn
_chemical_formula_sum   'Ti1 Mn1'
_cell_volume   111.07217171
_cell_formula_units_Z   1
loop_
 _symmetry_equiv_pos_site_id
 _symmetry_equiv_pos_as_xyz
  1  'x, y, z'
loop_
 _atom_site_type_symbol
 _atom_site_label
 _atom_site_symmetry_multiplicity
 _atom_site_fract_x
 _atom_site_fract_y
 _atom_site_fract_z
 _atom_site_occupancy
  Mn  Mn0  1  0.50000250  0.50000075  0.00000125  1.0
  Ti  Ti1  1  0.99999950  0.00000025  0.00000025  1.0
