# generated using pymatgen
data_Ce
_symmetry_space_group_name_H-M   'P 1'
_cell_length_a   4.40363000
_cell_length_b   6.73918000
_cell_length_c   9.42614926
_cell_angle_alpha   90.00000000
_cell_angle_beta   103.50827759
_cell_angle_gamma   90.00000000
_symmetry_Int_Tables_number   1
_chemical_formula_structural   Ce
_chemical_formula_sum   Ce4
_cell_volume   271.99983350
_cell_formula_units_Z   4
loop_
 _symmetry_equiv_pos_site_id
 _symmetry_equiv_pos_as_xyz
  1  'x, y, z'
loop_
 _atom_site_type_symbol
 _atom_site_label
 _atom_site_symmetry_multiplicity
 _atom_site_fract_x
 _atom_site_fract_y
 _atom_site_fract_z
 _atom_site_occupancy
  Ce  Ce0  1  0.55059000  0.25000000  0.10118000  1.0
  Ce  Ce1  1  0.44941000  0.75000000  0.89882000  1.0
  Ce  Ce2  1  0.34401200  0.25000000  0.68802400  1.0
  Ce  Ce3  1  0.65598800  0.75000000  0.31197600  1.0
