# generated using pymatgen
data_Gd
_symmetry_space_group_name_H-M   'P 1'
_cell_length_a   3.62358468
_cell_length_b   3.62358468
_cell_length_c   8.92622779
_cell_angle_alpha   78.28908055
_cell_angle_beta   78.28908055
_cell_angle_gamma   59.99998769
_symmetry_Int_Tables_number   1
_chemical_formula_structural   Gd
_chemical_formula_sum   Gd3
_cell_volume   98.67498830
_cell_formula_units_Z   3
loop_
 _symmetry_equiv_pos_site_id
 _symmetry_equiv_pos_as_xyz
  1  'x, y, z'
loop_
 _atom_site_type_symbol
 _atom_site_label
 _atom_site_symmetry_multiplicity
 _atom_site_fract_x
 _atom_site_fract_y
 _atom_site_fract_z
 _atom_site_occupancy
  Gd  Gd0  1  0.00000000  0.00000000  0.00000000  1.0
  Gd  Gd1  1  0.77787000  0.77787000  0.66639000  1.0
  Gd  Gd2  1  0.22213000  0.22213000  0.33361000  1.0
