# generated using pymatgen
data_Nd2Fe17
_symmetry_space_group_name_H-M   'P 1'
_cell_length_a   6.49663572
_cell_length_b   6.49663572
_cell_length_c   6.50862409
_cell_angle_alpha   83.84017937
_cell_angle_beta   83.84017937
_cell_angle_gamma   83.47759807
_symmetry_Int_Tables_number   1
_chemical_formula_structural   Nd2Fe17
_chemical_formula_sum   'Nd2 Fe17'
_cell_volume   270.09014926
_cell_formula_units_Z   1
loop_
 _symmetry_equiv_pos_site_id
 _symmetry_equiv_pos_as_xyz
  1  'x, y, z'
loop_
 _atom_site_type_symbol
 _atom_site_label
 _atom_site_symmetry_multiplicity
 _atom_site_fract_x
 _atom_site_fract_y
 _atom_site_fract_z
 _atom_site_occupancy
  Nd  Nd0  1  0.33852900  0.33852900  0.35246800  1.0
  Nd  Nd1  1  0.66147100  0.66147100  0.64753200  1.0
  Fe  Fe2  1  0.09634700  0.09634700  0.09706300  1.0
  Fe  Fe3  1  0.90365300  0.90365300  0.90293700  1.0
  Fe  Fe4  1  0.65743000  0.65743000  0.14790800  1.0
  Fe  Fe5  1  0.14993100  0.65900600  0.65794200  1.0
  Fe  Fe6  1  0.65900600  0.14993100  0.65794200  1.0
  Fe  Fe7  1  0.34257000  0.34257000  0.85209200  1.0
  Fe  Fe8  1  0.85006900  0.34099400  0.34205800  1.0
  Fe  Fe9  1  0.34099400  0.85006900  0.34205800  1.0
  Fe  Fe10  1  0.28573100  0.71426900  1.00000000  1.0
  Fe  Fe11  1  0.99940700  0.28596000  0.71399800  1.0
  Fe  Fe12  1  0.71404000  0.00059300  0.28600200  1.0
  Fe  Fe13  1  0.00059300  0.71404000  0.28600200  1.0
  Fe  Fe14  1  0.28596000  0.99940700  0.71399800  1.0
  Fe  Fe15  1  0.71426900  0.28573100  1.00000000  1.0
  Fe  Fe16  1  0.00000000  0.00000000  0.50000000  1.0
  Fe  Fe17  1  0.50000000  0.00000000  0.00000000  1.0
  Fe  Fe18  1  0.00000000  0.50000000  1.00000000  1.0
