# generated using pymatgen
data_ErFe5
_symmetry_space_group_name_H-M   'P 1'
_cell_length_a   5.01689200
_cell_length_b   6.60725002
_cell_length_c   6.60725002
_cell_angle_alpha   81.81277531
_cell_angle_beta   67.68796237
_cell_angle_gamma   67.68796237
_symmetry_Int_Tables_number   1
_chemical_formula_structural   ErFe5
_chemical_formula_sum   'Er1 Fe5'
_cell_volume   187.44801955
_cell_formula_units_Z   1
loop_
 _symmetry_equiv_pos_site_id
 _symmetry_equiv_pos_as_xyz
  1  'x, y, z'
loop_
 _atom_site_type_symbol
 _atom_site_label
 _atom_site_symmetry_multiplicity
 _atom_site_fract_x
 _atom_site_fract_y
 _atom_site_fract_z
 _atom_site_occupancy
  Er  Er0  1  0.00456000  0.99544000  0.99544000  1.0
  Fe  Fe1  1  0.49564500  0.00213000  0.50069900  1.0
  Fe  Fe2  1  0.00152600  0.00213000  0.50069900  1.0
  Fe  Fe3  1  0.49564500  0.50069900  0.00213000  1.0
  Fe  Fe4  1  0.00152600  0.50069900  0.00213000  1.0
  Fe  Fe5  1  0.73490900  0.76509100  0.76509100  1.0
