# generated using pymatgen
data_ErNi4
_symmetry_space_group_name_H-M   'P 1'
_cell_length_a   4.94143200
_cell_length_b   4.94143144
_cell_length_c   6.94521400
_cell_angle_alpha   90.00000000
_cell_angle_beta   90.00000000
_cell_angle_gamma   120.00000373
_symmetry_Int_Tables_number   1
_chemical_formula_structural   ErNi4
_chemical_formula_sum   'Er2 Ni8'
_cell_volume   146.86619542
_cell_formula_units_Z   2
loop_
 _symmetry_equiv_pos_site_id
 _symmetry_equiv_pos_as_xyz
  1  'x, y, z'
loop_
 _atom_site_type_symbol
 _atom_site_label
 _atom_site_symmetry_multiplicity
 _atom_site_fract_x
 _atom_site_fract_y
 _atom_site_fract_z
 _atom_site_occupancy
  Er  Er0  1  0.00000000  0.00000000  0.50000000  1.0
  Er  Er1  1  0.00000000  0.00000000  0.00000000  1.0
  Ni  Ni2  1  0.66666667  0.33333333  0.00000000  1.0
  Ni  Ni3  1  0.33333333  0.66666667  0.00000000  1.0
  Ni  Ni4  1  0.50000000  0.50000000  0.70842700  1.0
  Ni  Ni5  1  0.50000000  0.00000000  0.70842700  1.0
  Ni  Ni6  1  1.00000000  0.50000000  0.70842700  1.0
  Ni  Ni7  1  0.50000000  0.50000000  0.29157300  1.0
  Ni  Ni8  1  0.50000000  0.00000000  0.29157300  1.0
  Ni  Ni9  1  1.00000000  0.50000000  0.29157300  1.0
