# generated using pymatgen
data_Fe
_symmetry_space_group_name_H-M   'P 1'
_cell_length_a   4.74654132
_cell_length_b   4.76114778
_cell_length_c   5.87191288
_cell_angle_alpha   66.21365950
_cell_angle_beta   66.19803218
_cell_angle_gamma   60.12996812
_symmetry_Int_Tables_number   1
_chemical_formula_structural   Fe
_chemical_formula_sum   Fe2
_cell_volume   101.80277910
_cell_formula_units_Z   2
loop_
 _symmetry_equiv_pos_site_id
 _symmetry_equiv_pos_as_xyz
  1  'x, y, z'
loop_
 _atom_site_type_symbol
 _atom_site_label
 _atom_site_symmetry_multiplicity
 _atom_site_fract_x
 _atom_site_fract_y
 _atom_site_fract_z
 _atom_site_occupancy
  Fe  Fe0  1  0.99999800  0.00000100  0.00000100  1.0
  Fe  Fe1  1  0.50000100  0.50000000  0.49999900  1.0
