# generated using pymatgen
data_Pu
_symmetry_space_group_name_H-M   'P 1'
_cell_length_a   6.04863800
_cell_length_b   8.15079908
_cell_length_c   8.15079908
_cell_angle_alpha   75.55480916
_cell_angle_beta   68.21987686
_cell_angle_gamma   68.21987687
_symmetry_Int_Tables_number   1
_chemical_formula_structural   Pu
_chemical_formula_sum   Pu4
_cell_volume   343.59698402
_cell_formula_units_Z   4
loop_
 _symmetry_equiv_pos_site_id
 _symmetry_equiv_pos_as_xyz
  1  'x, y, z'
loop_
 _atom_site_type_symbol
 _atom_site_label
 _atom_site_symmetry_multiplicity
 _atom_site_fract_x
 _atom_site_fract_y
 _atom_site_fract_z
 _atom_site_occupancy
  Pu  Pu0  1  0.86946900  0.35947400  0.90158800  1.0
  Pu  Pu1  1  0.13053100  0.64052600  0.09841200  1.0
  Pu  Pu2  1  0.36946900  0.90158800  0.35947400  1.0
  Pu  Pu3  1  0.63053100  0.09841200  0.64052600  1.0
