# generated using pymatgen
data_GdPd
_symmetry_space_group_name_H-M   'P 1'
_cell_length_a   3.77979000
_cell_length_b   4.58778000
_cell_length_c   5.69069820
_cell_angle_alpha   90.00000000
_cell_angle_beta   109.39643742
_cell_angle_gamma   90.00000000
_symmetry_Int_Tables_number   1
_chemical_formula_structural   GdPd
_chemical_formula_sum   'Gd2 Pd2'
_cell_volume   93.08067908
_cell_formula_units_Z   2
loop_
 _symmetry_equiv_pos_site_id
 _symmetry_equiv_pos_as_xyz
  1  'x, y, z'
loop_
 _atom_site_type_symbol
 _atom_site_label
 _atom_site_symmetry_multiplicity
 _atom_site_fract_x
 _atom_site_fract_y
 _atom_site_fract_z
 _atom_site_occupancy
  Gd  Gd0  1  0.86282200  0.25000000  0.72564400  1.0
  Gd  Gd1  1  0.13717800  0.75000000  0.27435600  1.0
  Pd  Pd2  1  0.58649600  0.25000000  0.17299200  1.0
  Pd  Pd3  1  0.41350400  0.75000000  0.82700800  1.0
