# generated using pymatgen
data_Ho12Co7
_symmetry_space_group_name_H-M   'P 1'
_cell_length_a   8.24068600
_cell_length_b   9.18148470
_cell_length_c   11.14863900
_cell_angle_alpha   90.00000000
_cell_angle_beta   90.00000000
_cell_angle_gamma   102.09606462
_symmetry_Int_Tables_number   1
_chemical_formula_structural   Ho12Co7
_chemical_formula_sum   'Ho24 Co14'
_cell_volume   824.79708108
_cell_formula_units_Z   2
loop_
 _symmetry_equiv_pos_site_id
 _symmetry_equiv_pos_as_xyz
  1  'x, y, z'
loop_
 _atom_site_type_symbol
 _atom_site_label
 _atom_site_symmetry_multiplicity
 _atom_site_fract_x
 _atom_site_fract_y
 _atom_site_fract_z
 _atom_site_occupancy
  Ho  Ho0  1  0.77301400  0.53816500  0.70526200  1.0
  Ho  Ho1  1  0.72698600  0.96183500  0.20526200  1.0
  Ho  Ho2  1  0.16004700  0.65819300  0.84153600  1.0
  Ho  Ho3  1  0.33995300  0.84180700  0.34153600  1.0
  Ho  Ho4  1  0.83995300  0.34180700  0.15846400  1.0
  Ho  Ho5  1  0.66004700  0.15819300  0.65846400  1.0
  Ho  Ho6  1  0.19972200  0.35429000  0.00432500  1.0
  Ho  Ho7  1  0.30027800  0.14571000  0.50432500  1.0
  Ho  Ho8  1  0.80027800  0.64571000  0.99567500  1.0
  Ho  Ho9  1  0.69972200  0.85429000  0.49567500  1.0
  Ho  Ho10  1  0.27301400  0.03816500  0.79473800  1.0
  Ho  Ho11  1  0.22698600  0.46183500  0.29473800  1.0
  Ho  Ho12  1  0.85619800  0.08641200  0.92803600  1.0
  Ho  Ho13  1  0.64380200  0.41358800  0.42803600  1.0
  Ho  Ho14  1  0.14380200  0.91358800  0.07196400  1.0
  Ho  Ho15  1  0.35619800  0.58641200  0.57196400  1.0
  Ho  Ho16  1  0.92471700  0.67536800  0.30073000  1.0
  Ho  Ho17  1  0.57528300  0.82463200  0.80073000  1.0
  Ho  Ho18  1  0.07528300  0.32463200  0.69927000  1.0
  Ho  Ho19  1  0.42471700  0.17536800  0.19927000  1.0
  Ho  Ho20  1  0.57211000  0.30539900  0.92960100  1.0
  Ho  Ho21  1  0.92789000  0.19460100  0.42960100  1.0
  Ho  Ho22  1  0.42789000  0.69460100  0.07039900  1.0
  Ho  Ho23  1  0.07211000  0.80539900  0.57039900  1.0
  Co  Co24  1  0.00000000  0.50000000  0.50000000  1.0
  Co  Co25  1  0.50000000  0.00000000  0.00000000  1.0
  Co  Co26  1  0.93839800  0.02958900  0.67399300  1.0
  Co  Co27  1  0.56160200  0.47041100  0.17399300  1.0
  Co  Co28  1  0.06160200  0.97041100  0.32600700  1.0
  Co  Co29  1  0.43839800  0.52958900  0.82600700  1.0
  Co  Co30  1  0.59321600  0.09975800  0.40128100  1.0
  Co  Co31  1  0.90678400  0.40024200  0.90128100  1.0
  Co  Co32  1  0.40678400  0.90024200  0.59871900  1.0
  Co  Co33  1  0.09321600  0.59975800  0.09871900  1.0
  Co  Co34  1  0.94079100  0.84266300  0.81097100  1.0
  Co  Co35  1  0.55920900  0.65733700  0.31097100  1.0
  Co  Co36  1  0.05920900  0.15733700  0.18902900  1.0
  Co  Co37  1  0.44079100  0.34266300  0.68902900  1.0
