# generated using pymatgen
data_Ho2MnNi
_symmetry_space_group_name_H-M   'P 1'
_cell_length_a   5.25963000
_cell_length_b   5.60254000
_cell_length_c   7.57565323
_cell_angle_alpha   90.00000000
_cell_angle_beta   90.74548263
_cell_angle_gamma   90.00000000
_symmetry_Int_Tables_number   1
_chemical_formula_structural   Ho2MnNi
_chemical_formula_sum   'Ho4 Mn2 Ni2'
_cell_volume   223.21505614
_cell_formula_units_Z   2
loop_
 _symmetry_equiv_pos_site_id
 _symmetry_equiv_pos_as_xyz
  1  'x, y, z'
loop_
 _atom_site_type_symbol
 _atom_site_label
 _atom_site_symmetry_multiplicity
 _atom_site_fract_x
 _atom_site_fract_y
 _atom_site_fract_z
 _atom_site_occupancy
  Ho  Ho0  1  0.52132300  0.92931800  0.24696100  1.0
  Ho  Ho1  1  0.47867700  0.07068200  0.75303900  1.0
  Ho  Ho2  1  0.97867700  0.42931800  0.25303900  1.0
  Ho  Ho3  1  0.02132300  0.57068200  0.74696100  1.0
  Mn  Mn4  1  0.50000000  0.50000000  0.50000000  1.0
  Mn  Mn5  1  0.00000000  0.00000000  0.00000000  1.0
  Ni  Ni6  1  0.50000000  0.50000000  0.00000000  1.0
  Ni  Ni7  1  1.00000000  0.00000000  0.50000000  1.0
