# generated using pymatgen
data_HfFe6
_symmetry_space_group_name_H-M   'P 1'
_cell_length_a   5.06147400
_cell_length_b   5.06147308
_cell_length_c   8.08268200
_cell_angle_alpha   90.00000000
_cell_angle_beta   90.00000000
_cell_angle_gamma   120.00000603
_symmetry_Int_Tables_number   1
_chemical_formula_structural   HfFe6
_chemical_formula_sum   'Hf1 Fe6'
_cell_volume   179.32466973
_cell_formula_units_Z   1
loop_
 _symmetry_equiv_pos_site_id
 _symmetry_equiv_pos_as_xyz
  1  'x, y, z'
loop_
 _atom_site_type_symbol
 _atom_site_label
 _atom_site_symmetry_multiplicity
 _atom_site_fract_x
 _atom_site_fract_y
 _atom_site_fract_z
 _atom_site_occupancy
  Hf  Hf0  1  0.00000000  0.00000000  0.00000000  1.0
  Fe  Fe1  1  0.50000000  0.50000000  0.75166800  1.0
  Fe  Fe2  1  0.50000000  0.00000000  0.75166800  1.0
  Fe  Fe3  1  0.00000000  0.50000000  0.75166800  1.0
  Fe  Fe4  1  0.50000000  0.50000000  0.24833200  1.0
  Fe  Fe5  1  0.50000000  0.00000000  0.24833200  1.0
  Fe  Fe6  1  0.00000000  0.50000000  0.24833200  1.0
