# generated using pymatgen
data_Gd
_symmetry_space_group_name_H-M   'P 1'
_cell_length_a   4.55110400
_cell_length_b   5.70916647
_cell_length_c   5.70916647
_cell_angle_alpha   78.11960796
_cell_angle_beta   66.51064544
_cell_angle_gamma   66.51064544
_symmetry_Int_Tables_number   1
_chemical_formula_structural   Gd
_chemical_formula_sum   Gd2
_cell_volume   124.58011566
_cell_formula_units_Z   2
loop_
 _symmetry_equiv_pos_site_id
 _symmetry_equiv_pos_as_xyz
  1  'x, y, z'
loop_
 _atom_site_type_symbol
 _atom_site_label
 _atom_site_symmetry_multiplicity
 _atom_site_fract_x
 _atom_site_fract_y
 _atom_site_fract_z
 _atom_site_occupancy
  Gd  Gd0  1  0.47007100  0.27992900  0.77992900  1.0
  Gd  Gd1  1  0.52992900  0.72007100  0.22007100  1.0
