# generated using pymatgen
data_Fe
_symmetry_space_group_name_H-M   'P 1'
_cell_length_a   2.53523058
_cell_length_b   2.53523058
_cell_length_c   9.58789882
_cell_angle_alpha   95.46783808
_cell_angle_beta   95.46783810
_cell_angle_gamma   106.21693961
_symmetry_Int_Tables_number   1
_chemical_formula_structural   Fe
_chemical_formula_sum   Fe4
_cell_volume   58.42299587
_cell_formula_units_Z   4
loop_
 _symmetry_equiv_pos_site_id
 _symmetry_equiv_pos_as_xyz
  1  'x, y, z'
loop_
 _atom_site_type_symbol
 _atom_site_label
 _atom_site_symmetry_multiplicity
 _atom_site_fract_x
 _atom_site_fract_y
 _atom_site_fract_z
 _atom_site_occupancy
  Fe  Fe0  1  0.40593100  0.40593100  0.81186200  1.0
  Fe  Fe1  1  0.80202900  0.80202900  0.60405800  1.0
  Fe  Fe2  1  0.19797100  0.19797100  0.39594200  1.0
  Fe  Fe3  1  0.59406900  0.59406900  0.18813800  1.0
