# generated using pymatgen
data_CrMo
_symmetry_space_group_name_H-M   'P 1'
_cell_length_a   5.73586648
_cell_length_b   5.73580376
_cell_length_c   5.73612528
_cell_angle_alpha   119.14417650
_cell_angle_beta   91.49101076
_cell_angle_gamma   119.14102781
_symmetry_Int_Tables_number   1
_chemical_formula_structural   CrMo
_chemical_formula_sum   'Cr1 Mo1'
_cell_volume   135.12386349
_cell_formula_units_Z   1
loop_
 _symmetry_equiv_pos_site_id
 _symmetry_equiv_pos_as_xyz
  1  'x, y, z'
loop_
 _atom_site_type_symbol
 _atom_site_label
 _atom_site_symmetry_multiplicity
 _atom_site_fract_x
 _atom_site_fract_y
 _atom_site_fract_z
 _atom_site_occupancy
  Cr  Cr0  1  0.00000100  0.99984450  0.99988150  1.0
  Mo  Mo1  1  0.49994400  0.99994650  0.49993250  1.0
