# generated using pymatgen
data_Nb
_symmetry_space_group_name_H-M   'P 1'
_cell_length_a   6.28618575
_cell_length_b   6.28618575
_cell_length_c   13.18874404
_cell_angle_alpha   76.21280623
_cell_angle_beta   76.21280623
_cell_angle_gamma   60.00000265
_symmetry_Int_Tables_number   1
_chemical_formula_structural   Nb
_chemical_formula_sum   Nb8
_cell_volume   433.91913927
_cell_formula_units_Z   8
loop_
 _symmetry_equiv_pos_site_id
 _symmetry_equiv_pos_as_xyz
  1  'x, y, z'
loop_
 _atom_site_type_symbol
 _atom_site_label
 _atom_site_symmetry_multiplicity
 _atom_site_fract_x
 _atom_site_fract_y
 _atom_site_fract_z
 _atom_site_occupancy
  Nb  Nb0  1  0.74790800  0.12176100  0.74093100  1.0
  Nb  Nb1  1  0.38940000  0.74790800  0.74093100  1.0
  Nb  Nb2  1  0.12176100  0.38940000  0.74093100  1.0
  Nb  Nb3  1  0.89110600  0.62010700  0.23962900  1.0
  Nb  Nb4  1  0.24915800  0.89110600  0.23962900  1.0
  Nb  Nb5  1  0.62010700  0.24915800  0.23962900  1.0
  Nb  Nb6  1  0.00583000  0.00583000  0.98251000  1.0
  Nb  Nb7  1  0.50601900  0.50601900  0.48194300  1.0
