# generated using pymatgen
data_MnCu2
_symmetry_space_group_name_H-M   'P 1'
_cell_length_a   9.78740000
_cell_length_b   9.81531941
_cell_length_c   9.79524600
_cell_angle_alpha   119.93237133
_cell_angle_beta   90.00000000
_cell_angle_gamma   119.90595012
_symmetry_Int_Tables_number   1
_chemical_formula_structural   MnCu2
_chemical_formula_sum   'Mn1 Cu2'
_cell_volume   667.00635312
_cell_formula_units_Z   1
loop_
 _symmetry_equiv_pos_site_id
 _symmetry_equiv_pos_as_xyz
  1  'x, y, z'
loop_
 _atom_site_type_symbol
 _atom_site_label
 _atom_site_symmetry_multiplicity
 _atom_site_fract_x
 _atom_site_fract_y
 _atom_site_fract_z
 _atom_site_occupancy
  Mn  Mn0  1  0.00000000  0.00000000  0.00000000  1.0
  Cu  Cu1  1  0.00000000  0.00000000  0.25394200  1.0
  Cu  Cu2  1  0.00000000  0.00000000  0.74605800  1.0
