# generated using pymatgen
data_Yb3Cu4
_symmetry_space_group_name_H-M   'P 1'
_cell_length_a   4.22411800
_cell_length_b   6.66646200
_cell_length_c   7.94548212
_cell_angle_alpha   114.80382875
_cell_angle_beta   105.41561526
_cell_angle_gamma   90.00000000
_symmetry_Int_Tables_number   1
_chemical_formula_structural   Yb3Cu4
_chemical_formula_sum   'Yb3 Cu4'
_cell_volume   194.20031282
_cell_formula_units_Z   1
loop_
 _symmetry_equiv_pos_site_id
 _symmetry_equiv_pos_as_xyz
  1  'x, y, z'
loop_
 _atom_site_type_symbol
 _atom_site_label
 _atom_site_symmetry_multiplicity
 _atom_site_fract_x
 _atom_site_fract_y
 _atom_site_fract_z
 _atom_site_occupancy
  Yb  Yb0  1  0.00000000  0.50000000  0.00000000  1.0
  Yb  Yb1  1  0.13094500  0.13094500  0.26189000  1.0
  Yb  Yb2  1  0.86905500  0.86905500  0.73811000  1.0
  Cu  Cu3  1  0.32955100  0.51977700  0.65910200  1.0
  Cu  Cu4  1  0.32955100  0.13932500  0.65910200  1.0
  Cu  Cu5  1  0.67044900  0.86067500  0.34089800  1.0
  Cu  Cu6  1  0.67044900  0.48022300  0.34089800  1.0
