# generated using pymatgen
data_HoFe6
_symmetry_space_group_name_H-M   'P 1'
_cell_length_a   4.99436200
_cell_length_b   6.55397459
_cell_length_c   6.55397459
_cell_angle_alpha   80.69258565
_cell_angle_beta   67.60325799
_cell_angle_gamma   67.60325800
_symmetry_Int_Tables_number   1
_chemical_formula_structural   HoFe6
_chemical_formula_sum   'Ho1 Fe6'
_cell_volume   183.35192811
_cell_formula_units_Z   1
loop_
 _symmetry_equiv_pos_site_id
 _symmetry_equiv_pos_as_xyz
  1  'x, y, z'
loop_
 _atom_site_type_symbol
 _atom_site_label
 _atom_site_symmetry_multiplicity
 _atom_site_fract_x
 _atom_site_fract_y
 _atom_site_fract_z
 _atom_site_occupancy
  Ho  Ho0  1  0.00000000  0.00000000  0.00000000  1.0
  Fe  Fe1  1  0.50000000  1.00000000  0.50000000  1.0
  Fe  Fe2  1  1.00000000  1.00000000  0.50000000  1.0
  Fe  Fe3  1  0.50000000  0.50000000  0.00000000  1.0
  Fe  Fe4  1  0.00000000  0.50000000  0.00000000  1.0
  Fe  Fe5  1  0.50000000  0.23819800  0.76180200  1.0
  Fe  Fe6  1  0.50000000  0.76180200  0.23819800  1.0
