# generated using pymatgen
data_Co
_symmetry_space_group_name_H-M   'P 1'
_cell_length_a   4.98323400
_cell_length_b   4.98323466
_cell_length_c   16.11799000
_cell_angle_alpha   90.00000000
_cell_angle_beta   90.00000000
_cell_angle_gamma   119.99999561
_symmetry_Int_Tables_number   1
_chemical_formula_structural   Co
_chemical_formula_sum   Co18
_cell_volume   346.62840788
_cell_formula_units_Z   18
loop_
 _symmetry_equiv_pos_site_id
 _symmetry_equiv_pos_as_xyz
  1  'x, y, z'
loop_
 _atom_site_type_symbol
 _atom_site_label
 _atom_site_symmetry_multiplicity
 _atom_site_fract_x
 _atom_site_fract_y
 _atom_site_fract_z
 _atom_site_occupancy
  Co  Co0  1  0.83381800  0.66763600  0.62826700  1.0
  Co  Co1  1  0.83381800  0.16618200  0.62826700  1.0
  Co  Co2  1  0.33236400  0.16618200  0.62826700  1.0
  Co  Co3  1  0.16618200  0.33236400  0.37173300  1.0
  Co  Co4  1  0.16618200  0.83381800  0.37173300  1.0
  Co  Co5  1  0.66763600  0.83381800  0.37173300  1.0
  Co  Co6  1  0.16618200  0.33236400  0.12826700  1.0
  Co  Co7  1  0.16618200  0.83381800  0.12826700  1.0
  Co  Co8  1  0.66763600  0.83381800  0.12826700  1.0
  Co  Co9  1  0.83381800  0.66763600  0.87173300  1.0
  Co  Co10  1  0.83381800  0.16618200  0.87173300  1.0
  Co  Co11  1  0.33236400  0.16618200  0.87173300  1.0
  Co  Co12  1  0.66666667  0.33333333  0.75000000  1.0
  Co  Co13  1  0.33333333  0.66666667  0.25000000  1.0
  Co  Co14  1  0.00000000  0.00000000  0.75000000  1.0
  Co  Co15  1  0.00000000  0.00000000  0.25000000  1.0
  Co  Co16  1  0.00000000  0.00000000  0.50000000  1.0
  Co  Co17  1  0.00000000  0.00000000  0.00000000  1.0
