# generated using pymatgen
data_Nd3Co
_symmetry_space_group_name_H-M   'P 1'
_cell_length_a   4.26679500
_cell_length_b   11.53949100
_cell_length_c   11.91962200
_cell_angle_alpha   90.00000000
_cell_angle_beta   90.00000000
_cell_angle_gamma   90.00000000
_symmetry_Int_Tables_number   1
_chemical_formula_structural   Nd3Co
_chemical_formula_sum   'Nd12 Co4'
_cell_volume   586.88216717
_cell_formula_units_Z   4
loop_
 _symmetry_equiv_pos_site_id
 _symmetry_equiv_pos_as_xyz
  1  'x, y, z'
loop_
 _atom_site_type_symbol
 _atom_site_label
 _atom_site_symmetry_multiplicity
 _atom_site_fract_x
 _atom_site_fract_y
 _atom_site_fract_z
 _atom_site_occupancy
  Nd  Nd0  1  0.25000000  0.37179800  0.05744300  1.0
  Nd  Nd1  1  0.75000000  0.62820200  0.94255700  1.0
  Nd  Nd2  1  0.75000000  0.87179800  0.44255700  1.0
  Nd  Nd3  1  0.25000000  0.12820200  0.55744300  1.0
  Nd  Nd4  1  0.25000000  0.69880600  0.21930200  1.0
  Nd  Nd5  1  0.75000000  0.30119400  0.78069800  1.0
  Nd  Nd6  1  0.75000000  0.19880600  0.28069800  1.0
  Nd  Nd7  1  0.25000000  0.80119400  0.71930200  1.0
  Nd  Nd8  1  0.25000000  0.44349900  0.38213800  1.0
  Nd  Nd9  1  0.75000000  0.55650100  0.61786200  1.0
  Nd  Nd10  1  0.75000000  0.94349900  0.11786200  1.0
  Nd  Nd11  1  0.25000000  0.05650100  0.88213800  1.0
  Co  Co12  1  0.25000000  0.13431300  0.13245600  1.0
  Co  Co13  1  0.75000000  0.86568700  0.86754400  1.0
  Co  Co14  1  0.75000000  0.63431300  0.36754400  1.0
  Co  Co15  1  0.25000000  0.36568700  0.63245600  1.0
