# generated using pymatgen
data_Ta
_symmetry_space_group_name_H-M   'P 1'
_cell_length_a   5.59769800
_cell_length_b   5.70105600
_cell_length_c   15.18643992
_cell_angle_alpha   90.00000000
_cell_angle_beta   100.62027803
_cell_angle_gamma   90.00000000
_symmetry_Int_Tables_number   1
_chemical_formula_structural   Ta
_chemical_formula_sum   Ta4
_cell_volume   476.33984187
_cell_formula_units_Z   4
loop_
 _symmetry_equiv_pos_site_id
 _symmetry_equiv_pos_as_xyz
  1  'x, y, z'
loop_
 _atom_site_type_symbol
 _atom_site_label
 _atom_site_symmetry_multiplicity
 _atom_site_fract_x
 _atom_site_fract_y
 _atom_site_fract_z
 _atom_site_occupancy
  Ta  Ta0  1  0.31795600  0.52226000  0.13924700  1.0
  Ta  Ta1  1  0.17870900  0.52226000  0.86075300  1.0
  Ta  Ta2  1  0.82129100  0.02226000  0.13924700  1.0
  Ta  Ta3  1  0.68204400  0.02226000  0.86075300  1.0
