# generated using pymatgen
data_V
_symmetry_space_group_name_H-M   'P 1'
_cell_length_a   3.64389100
_cell_length_b   5.01135500
_cell_length_c   11.50250100
_cell_angle_alpha   90.00000000
_cell_angle_beta   90.00000000
_cell_angle_gamma   90.00000000
_symmetry_Int_Tables_number   1
_chemical_formula_structural   V
_chemical_formula_sum   V4
_cell_volume   210.04523124
_cell_formula_units_Z   4
loop_
 _symmetry_equiv_pos_site_id
 _symmetry_equiv_pos_as_xyz
  1  'x, y, z'
loop_
 _atom_site_type_symbol
 _atom_site_label
 _atom_site_symmetry_multiplicity
 _atom_site_fract_x
 _atom_site_fract_y
 _atom_site_fract_z
 _atom_site_occupancy
  V  V0  1  0.25000100  0.40038400  0.59997600  1.0
  V  V1  1  0.75000100  0.59961700  0.40002400  1.0
  V  V2  1  0.25000100  0.40038400  0.90002400  1.0
  V  V3  1  0.75000100  0.59961700  0.09997600  1.0
