# generated using pymatgen
data_Ce2Pd
_symmetry_space_group_name_H-M   'P 1'
_cell_length_a   4.41982200
_cell_length_b   4.41982200
_cell_length_c   13.45576583
_cell_angle_alpha   99.45281119
_cell_angle_beta   99.45281119
_cell_angle_gamma   90.00000001
_symmetry_Int_Tables_number   1
_chemical_formula_structural   Ce2Pd
_chemical_formula_sum   'Ce2 Pd1'
_cell_volume   255.66768738
_cell_formula_units_Z   1
loop_
 _symmetry_equiv_pos_site_id
 _symmetry_equiv_pos_as_xyz
  1  'x, y, z'
loop_
 _atom_site_type_symbol
 _atom_site_label
 _atom_site_symmetry_multiplicity
 _atom_site_fract_x
 _atom_site_fract_y
 _atom_site_fract_z
 _atom_site_occupancy
  Ce  Ce0  1  0.64423900  0.64423900  0.28847800  1.0
  Ce  Ce1  1  0.35576100  0.35576100  0.71152200  1.0
  Pd  Pd2  1  0.50000000  0.50000000  0.00000000  1.0
