# generated using pymatgen
data_Ta
_symmetry_space_group_name_H-M   'P 1'
_cell_length_a   3.99051400
_cell_length_b   5.75446000
_cell_length_c   13.96637837
_cell_angle_alpha   90.00000000
_cell_angle_beta   98.21345977
_cell_angle_gamma   90.00000000
_symmetry_Int_Tables_number   1
_chemical_formula_structural   Ta
_chemical_formula_sum   Ta4
_cell_volume   317.42382751
_cell_formula_units_Z   4
loop_
 _symmetry_equiv_pos_site_id
 _symmetry_equiv_pos_as_xyz
  1  'x, y, z'
loop_
 _atom_site_type_symbol
 _atom_site_label
 _atom_site_symmetry_multiplicity
 _atom_site_fract_x
 _atom_site_fract_y
 _atom_site_fract_z
 _atom_site_occupancy
  Ta  Ta0  1  0.94527200  0.73960300  0.89054400  1.0
  Ta  Ta1  1  0.05472800  0.23960300  0.10945600  1.0
  Ta  Ta2  1  0.84091400  0.24374500  0.68182800  1.0
  Ta  Ta3  1  0.15908600  0.74374500  0.31817200  1.0
