# generated using pymatgen
data_Cr
_symmetry_space_group_name_H-M   'P 1'
_cell_length_a   5.06808490
_cell_length_b   5.06809644
_cell_length_c   6.73785911
_cell_angle_alpha   112.09236972
_cell_angle_beta   112.09152244
_cell_angle_gamma   89.99951608
_symmetry_Int_Tables_number   1
_chemical_formula_structural   Cr
_chemical_formula_sum   Cr2
_cell_volume   146.55588205
_cell_formula_units_Z   2
loop_
 _symmetry_equiv_pos_site_id
 _symmetry_equiv_pos_as_xyz
  1  'x, y, z'
loop_
 _atom_site_type_symbol
 _atom_site_label
 _atom_site_symmetry_multiplicity
 _atom_site_fract_x
 _atom_site_fract_y
 _atom_site_fract_z
 _atom_site_occupancy
  Cr  Cr0  1  0.62500200  0.87500500  0.75001000  1.0
  Cr  Cr1  1  0.37499100  0.12498700  0.24999500  1.0
