# generated using pymatgen
data_MnCo
_symmetry_space_group_name_H-M   'P 1'
_cell_length_a   5.30081274
_cell_length_b   5.65136601
_cell_length_c   7.57779703
_cell_angle_alpha   90.00531889
_cell_angle_beta   89.72724679
_cell_angle_gamma   89.99812433
_symmetry_Int_Tables_number   1
_chemical_formula_structural   MnCo
_chemical_formula_sum   'Mn2 Co2'
_cell_volume   227.00422642
_cell_formula_units_Z   2
loop_
 _symmetry_equiv_pos_site_id
 _symmetry_equiv_pos_as_xyz
  1  'x, y, z'
loop_
 _atom_site_type_symbol
 _atom_site_label
 _atom_site_symmetry_multiplicity
 _atom_site_fract_x
 _atom_site_fract_y
 _atom_site_fract_z
 _atom_site_occupancy
  Mn  Mn0  1  0.99999800  0.49999800  0.49999900  1.0
  Mn  Mn1  1  0.49999800  0.00000100  0.00000000  1.0
  Co  Co2  1  0.50000000  0.00000000  0.50000000  1.0
  Co  Co3  1  0.00000000  0.50000000  0.00000000  1.0
