# generated using pymatgen
data_MnPb
_symmetry_space_group_name_H-M   'P 1'
_cell_length_a   6.07646700
_cell_length_b   6.81441801
_cell_length_c   8.76399201
_cell_angle_alpha   90.00545692
_cell_angle_beta   90.00054805
_cell_angle_gamma   89.99884466
_symmetry_Int_Tables_number   1
_chemical_formula_structural   MnPb
_chemical_formula_sum   'Mn4 Pb4'
_cell_volume   362.89575254
_cell_formula_units_Z   4
loop_
 _symmetry_equiv_pos_site_id
 _symmetry_equiv_pos_as_xyz
  1  'x, y, z'
loop_
 _atom_site_type_symbol
 _atom_site_label
 _atom_site_symmetry_multiplicity
 _atom_site_fract_x
 _atom_site_fract_y
 _atom_site_fract_z
 _atom_site_occupancy
  Mn  Mn0  1  0.49993000  0.00000600  0.00018000  1.0
  Mn  Mn1  1  0.99990000  0.00011800  0.00002400  1.0
  Mn  Mn2  1  0.99983100  0.49981700  0.50003900  1.0
  Mn  Mn3  1  0.50001700  0.49996700  0.49978400  1.0
  Pb  Pb4  1  0.25000200  0.53620000  0.14955100  1.0
  Pb  Pb5  1  0.25005800  0.03624600  0.35039200  1.0
  Pb  Pb6  1  0.75002200  0.46375600  0.85032000  1.0
  Pb  Pb7  1  0.75004800  0.96378600  0.64968800  1.0
