# generated using pymatgen
data_Co
_symmetry_space_group_name_H-M   'P 1'
_cell_length_a   5.81747000
_cell_length_b   5.86809612
_cell_length_c   19.31813635
_cell_angle_alpha   81.46542969
_cell_angle_beta   81.34003005
_cell_angle_gamma   60.28498245
_symmetry_Int_Tables_number   1
_chemical_formula_structural   Co
_chemical_formula_sum   Co16
_cell_volume   564.12919656
_cell_formula_units_Z   16
loop_
 _symmetry_equiv_pos_site_id
 _symmetry_equiv_pos_as_xyz
  1  'x, y, z'
loop_
 _atom_site_type_symbol
 _atom_site_label
 _atom_site_symmetry_multiplicity
 _atom_site_fract_x
 _atom_site_fract_y
 _atom_site_fract_z
 _atom_site_occupancy
  Co  Co0  1  0.87444400  0.87508500  0.87484800  1.0
  Co  Co1  1  0.25005500  0.74977200  0.75011800  1.0
  Co  Co2  1  0.37562300  0.87508500  0.87484800  1.0
  Co  Co3  1  0.34779700  0.83714800  0.46725800  1.0
  Co  Co4  1  0.62114000  0.62655300  0.62616900  1.0
  Co  Co5  1  0.90293300  0.41291500  0.78121900  1.0
  Co  Co6  1  0.09750700  0.58750600  0.21748000  1.0
  Co  Co7  1  0.12613800  0.62655300  0.62616900  1.0
  Co  Co8  1  0.37504400  0.37482000  0.37517800  1.0
  Co  Co9  1  0.65196400  0.16258800  0.53348400  1.0
  Co  Co10  1  0.87495800  0.37482000  0.37517800  1.0
  Co  Co11  1  0.62374500  0.12346100  0.12396900  1.0
  Co  Co12  1  0.12882500  0.12346100  0.12396900  1.0
  Co  Co13  1  0.40201700  0.91352200  0.28244400  1.0
  Co  Co14  1  0.50046900  0.99984400  0.99921800  1.0
  Co  Co15  1  0.15255500  0.66429300  0.03059700  1.0
