# generated using pymatgen
data_Cr
_symmetry_space_group_name_H-M   'P 1'
_cell_length_a   5.47713097
_cell_length_b   5.60151400
_cell_length_c   7.79853712
_cell_angle_alpha   90.00002216
_cell_angle_beta   90.21746414
_cell_angle_gamma   89.99811746
_symmetry_Int_Tables_number   1
_chemical_formula_structural   Cr
_chemical_formula_sum   Cr2
_cell_volume   239.25915635
_cell_formula_units_Z   2
loop_
 _symmetry_equiv_pos_site_id
 _symmetry_equiv_pos_as_xyz
  1  'x, y, z'
loop_
 _atom_site_type_symbol
 _atom_site_label
 _atom_site_symmetry_multiplicity
 _atom_site_fract_x
 _atom_site_fract_y
 _atom_site_fract_z
 _atom_site_occupancy
  Cr  Cr0  1  0.00001750  0.50003100  0.49996200  1.0
  Cr  Cr1  1  0.49997500  1.00001600  0.00005500  1.0
