# generated using pymatgen
data_V
_symmetry_space_group_name_H-M   'P 1'
_cell_length_a   9.70143000
_cell_length_b   11.09423600
_cell_length_c   11.09423495
_cell_angle_alpha   120.00000313
_cell_angle_beta   90.00000000
_cell_angle_gamma   90.00000000
_symmetry_Int_Tables_number   1
_chemical_formula_structural   V
_chemical_formula_sum   V18
_cell_volume   1034.09665059
_cell_formula_units_Z   18
loop_
 _symmetry_equiv_pos_site_id
 _symmetry_equiv_pos_as_xyz
  1  'x, y, z'
loop_
 _atom_site_type_symbol
 _atom_site_label
 _atom_site_symmetry_multiplicity
 _atom_site_fract_x
 _atom_site_fract_y
 _atom_site_fract_z
 _atom_site_occupancy
  V  V0  1  0.09995900  0.81394700  0.68381300  1.0
  V  V1  1  0.59895500  0.20724500  0.89019800  1.0
  V  V2  1  0.24946200  0.68472800  0.83313700  1.0
  V  V3  1  0.40104500  0.31704700  0.20724600  1.0
  V  V4  1  0.90004100  0.13013400  0.81394700  1.0
  V  V5  1  0.24946200  0.16686400  0.85159200  1.0
  V  V6  1  0.90004100  0.68381300  0.86986600  1.0
  V  V7  1  0.59895500  0.68295300  0.79275400  1.0
  V  V8  1  0.75053800  0.31527200  0.16686300  1.0
  V  V9  1  0.59895500  0.10980100  0.31704600  1.0
  V  V10  1  0.40104500  0.79275500  0.10980200  1.0
  V  V11  1  0.75053800  0.83313600  0.14840800  1.0
  V  V12  1  0.09995900  0.86986600  0.18605300  1.0
  V  V13  1  0.24946200  0.14840900  0.31527300  1.0
  V  V14  1  0.90004100  0.18605300  0.31618700  1.0
  V  V15  1  0.75053800  0.85159100  0.68472700  1.0
  V  V16  1  0.09995900  0.31618700  0.13013400  1.0
  V  V17  1  0.40104500  0.89019900  0.68295400  1.0
