# generated using pymatgen
data_Fe
_symmetry_space_group_name_H-M   'P 1'
_cell_length_a   5.28233477
_cell_length_b   6.79291663
_cell_length_c   6.79291663
_cell_angle_alpha   86.07078623
_cell_angle_beta   81.26957400
_cell_angle_gamma   81.26957400
_symmetry_Int_Tables_number   1
_chemical_formula_structural   Fe
_chemical_formula_sum   Fe4
_cell_volume   237.87267461
_cell_formula_units_Z   4
loop_
 _symmetry_equiv_pos_site_id
 _symmetry_equiv_pos_as_xyz
  1  'x, y, z'
loop_
 _atom_site_type_symbol
 _atom_site_label
 _atom_site_symmetry_multiplicity
 _atom_site_fract_x
 _atom_site_fract_y
 _atom_site_fract_z
 _atom_site_occupancy
  Fe  Fe0  1  0.75000000  0.90767200  0.09232800  1.0
  Fe  Fe1  1  0.25000000  0.09232800  0.90767200  1.0
  Fe  Fe2  1  0.75000000  0.27069000  0.72931000  1.0
  Fe  Fe3  1  0.25000000  0.72931000  0.27069000  1.0
