# generated using pymatgen
data_Fe
_symmetry_space_group_name_H-M   'P 1'
_cell_length_a   3.09157000
_cell_length_b   7.59693052
_cell_length_c   7.59693052
_cell_angle_alpha   87.62715892
_cell_angle_beta   78.25976183
_cell_angle_gamma   78.25976180
_symmetry_Int_Tables_number   1
_chemical_formula_structural   Fe
_chemical_formula_sum   Fe4
_cell_volume   171.03771586
_cell_formula_units_Z   4
loop_
 _symmetry_equiv_pos_site_id
 _symmetry_equiv_pos_as_xyz
  1  'x, y, z'
loop_
 _atom_site_type_symbol
 _atom_site_label
 _atom_site_symmetry_multiplicity
 _atom_site_fract_x
 _atom_site_fract_y
 _atom_site_fract_z
 _atom_site_occupancy
  Fe  Fe0  1  0.16386700  0.20267700  0.46958800  1.0
  Fe  Fe1  1  0.83613300  0.79732300  0.53041200  1.0
  Fe  Fe2  1  0.63345600  0.53041200  0.20267600  1.0
  Fe  Fe3  1  0.36654400  0.46958800  0.79732400  1.0
