# generated using pymatgen
data_Cu
_symmetry_space_group_name_H-M   'P 1'
_cell_length_a   5.41711500
_cell_length_b   5.47289800
_cell_length_c   16.11398919
_cell_angle_alpha   80.22274970
_cell_angle_beta   90.00000000
_cell_angle_gamma   90.00000000
_symmetry_Int_Tables_number   1
_chemical_formula_structural   Cu
_chemical_formula_sum   Cu4
_cell_volume   470.79762869
_cell_formula_units_Z   4
loop_
 _symmetry_equiv_pos_site_id
 _symmetry_equiv_pos_as_xyz
  1  'x, y, z'
loop_
 _atom_site_type_symbol
 _atom_site_label
 _atom_site_symmetry_multiplicity
 _atom_site_fract_x
 _atom_site_fract_y
 _atom_site_fract_z
 _atom_site_occupancy
  Cu  Cu0  1  0.00244800  0.04889400  0.40238100  1.0
  Cu  Cu1  1  0.00244800  0.95110600  0.59761900  1.0
  Cu  Cu2  1  0.50244800  0.45127500  0.59761900  1.0
  Cu  Cu3  1  0.50244800  0.54872500  0.40238100  1.0
