# generated using pymatgen
data_Fe
_symmetry_space_group_name_H-M   'P 1'
_cell_length_a   5.99773800
_cell_length_b   5.99773846
_cell_length_c   23.34821500
_cell_angle_alpha   90.00000000
_cell_angle_beta   90.00000000
_cell_angle_gamma   119.99999749
_symmetry_Int_Tables_number   1
_chemical_formula_structural   Fe
_chemical_formula_sum   Fe24
_cell_volume   727.37662611
_cell_formula_units_Z   24
loop_
 _symmetry_equiv_pos_site_id
 _symmetry_equiv_pos_as_xyz
  1  'x, y, z'
loop_
 _atom_site_type_symbol
 _atom_site_label
 _atom_site_symmetry_multiplicity
 _atom_site_fract_x
 _atom_site_fract_y
 _atom_site_fract_z
 _atom_site_occupancy
  Fe  Fe0  1  0.00000000  0.00000000  0.50000000  1.0
  Fe  Fe1  1  0.00000000  0.00000000  0.00000000  1.0
  Fe  Fe2  1  0.00000000  0.00000000  0.75000000  1.0
  Fe  Fe3  1  0.00000000  0.00000000  0.25000000  1.0
  Fe  Fe4  1  0.66666667  0.33333333  0.52748500  1.0
  Fe  Fe5  1  0.33333333  0.66666667  0.47251500  1.0
  Fe  Fe6  1  0.33333333  0.66666667  0.02748500  1.0
  Fe  Fe7  1  0.66666667  0.33333333  0.97251500  1.0
  Fe  Fe8  1  0.66666667  0.33333333  0.69104300  1.0
  Fe  Fe9  1  0.33333333  0.66666667  0.30895700  1.0
  Fe  Fe10  1  0.33333333  0.66666667  0.19104300  1.0
  Fe  Fe11  1  0.66666667  0.33333333  0.80895700  1.0
  Fe  Fe12  1  0.83184600  0.66369200  0.39032600  1.0
  Fe  Fe13  1  0.83184600  0.16815400  0.39032600  1.0
  Fe  Fe14  1  0.33630800  0.16815400  0.39032600  1.0
  Fe  Fe15  1  0.16815400  0.33630800  0.60967400  1.0
  Fe  Fe16  1  0.16815400  0.83184600  0.60967400  1.0
  Fe  Fe17  1  0.66369200  0.83184600  0.60967400  1.0
  Fe  Fe18  1  0.16815400  0.33630800  0.89032600  1.0
  Fe  Fe19  1  0.16815400  0.83184600  0.89032600  1.0
  Fe  Fe20  1  0.66369200  0.83184600  0.89032600  1.0
  Fe  Fe21  1  0.83184600  0.66369200  0.10967400  1.0
  Fe  Fe22  1  0.83184600  0.16815400  0.10967400  1.0
  Fe  Fe23  1  0.33630800  0.16815400  0.10967400  1.0
