# generated using pymatgen
data_Cr2Ni
_symmetry_space_group_name_H-M   'P 1'
_cell_length_a   5.84841080
_cell_length_b   5.87476175
_cell_length_c   6.01167851
_cell_angle_alpha   119.23726214
_cell_angle_beta   118.89209676
_cell_angle_gamma   90.00158908
_symmetry_Int_Tables_number   1
_chemical_formula_structural   Cr2Ni
_chemical_formula_sum   'Cr4 Ni2'
_cell_volume   150.08346493
_cell_formula_units_Z   2
loop_
 _symmetry_equiv_pos_site_id
 _symmetry_equiv_pos_as_xyz
  1  'x, y, z'
loop_
 _atom_site_type_symbol
 _atom_site_label
 _atom_site_symmetry_multiplicity
 _atom_site_fract_x
 _atom_site_fract_y
 _atom_site_fract_z
 _atom_site_occupancy
  Cr  Cr0  1  0.00000800  0.99999900  0.99999700  1.0
  Cr  Cr1  1  0.50000000  0.00000000  0.00000500  1.0
  Cr  Cr2  1  0.00000400  0.99999800  0.50000600  1.0
  Cr  Cr3  1  0.99999900  0.49999900  0.49999600  1.0
  Ni  Ni4  1  0.62516900  0.37513200  0.75021900  1.0
  Ni  Ni5  1  0.37483400  0.62486800  0.24978500  1.0
