# generated using pymatgen
data_V
_symmetry_space_group_name_H-M   'P 1'
_cell_length_a   6.14887432
_cell_length_b   6.30391601
_cell_length_c   6.46780191
_cell_angle_alpha   60.83471765
_cell_angle_beta   77.66423453
_cell_angle_gamma   63.99888125
_symmetry_Int_Tables_number   1
_chemical_formula_structural   V
_chemical_formula_sum   V2
_cell_volume   196.76200562
_cell_formula_units_Z   2
loop_
 _symmetry_equiv_pos_site_id
 _symmetry_equiv_pos_as_xyz
  1  'x, y, z'
loop_
 _atom_site_type_symbol
 _atom_site_label
 _atom_site_symmetry_multiplicity
 _atom_site_fract_x
 _atom_site_fract_y
 _atom_site_fract_z
 _atom_site_occupancy
  V  V0  1  0.25000000  0.39867800  0.20264400  1.0
  V  V1  1  0.75000000  0.60132200  0.79735600  1.0
