# generated using pymatgen
data_CoRe2
_symmetry_space_group_name_H-M   'P 1'
_cell_length_a   4.77366600
_cell_length_b   4.77369900
_cell_length_c   8.50080900
_cell_angle_alpha   90.00012067
_cell_angle_beta   89.99963798
_cell_angle_gamma   89.99735947
_symmetry_Int_Tables_number   1
_chemical_formula_structural   CoRe2
_chemical_formula_sum   'Co2 Re4'
_cell_volume   193.71681451
_cell_formula_units_Z   2
loop_
 _symmetry_equiv_pos_site_id
 _symmetry_equiv_pos_as_xyz
  1  'x, y, z'
loop_
 _atom_site_type_symbol
 _atom_site_label
 _atom_site_symmetry_multiplicity
 _atom_site_fract_x
 _atom_site_fract_y
 _atom_site_fract_z
 _atom_site_occupancy
  Co  Co0  1  0.50000300  0.49999900  0.83331500  1.0
  Co  Co1  1  0.99999800  0.00000100  0.33333333  1.0
  Re  Re2  1  0.49999700  0.49999900  0.48707900  1.0
  Re  Re3  1  0.49999700  0.50000500  0.17963300  1.0
  Re  Re4  1  0.00000400  0.99999800  0.98746600  1.0
  Re  Re5  1  0.00001000  0.00000600  0.67916000  1.0
