# generated using pymatgen
data_Nb2Bi2PbO9
_symmetry_space_group_name_H-M   'P 1'
_cell_length_a   12.99545127
_cell_length_b   12.99545127
_cell_length_c   5.70047600
_cell_angle_alpha   90.00000000
_cell_angle_beta   90.00000000
_cell_angle_gamma   154.85516609
_symmetry_Int_Tables_number   1
_chemical_formula_structural   Nb2Bi2PbO9
_chemical_formula_sum   'Nb4 Bi4 Pb2 O18'
_cell_volume   409.06154757
_cell_formula_units_Z   2
loop_
 _symmetry_equiv_pos_site_id
 _symmetry_equiv_pos_as_xyz
  1  'x, y, z'
loop_
 _atom_site_type_symbol
 _atom_site_label
 _atom_site_symmetry_multiplicity
 _atom_site_fract_x
 _atom_site_fract_y
 _atom_site_fract_z
 _atom_site_occupancy
  Nb  Nb0  1  0.83641600  0.66644900  0.23194900  1
  Nb  Nb1  1  0.66644900  0.83641600  0.23194900  1
  Nb  Nb2  1  0.33355100  0.16358400  0.73194900  1
  Nb  Nb3  1  0.16358400  0.33355100  0.73194900  1
  Bi  Bi4  1  0.08386300  0.48526700  0.31089900  1
  Bi  Bi5  1  0.51473300  0.91613700  0.81089900  1
  Bi  Bi6  1  0.91613700  0.51473300  0.81089900  1
  Bi  Bi7  1  0.48526700  0.08386300  0.31089900  1
  Pb  Pb8  1  0.75441000  0.75441000  0.75448300  1
  Pb  Pb9  1  0.24559000  0.24559000  0.25448300  1
  O  O10  1  0.83636800  0.52111400  0.19189100  1
  O  O11  1  0.45448000  0.59425500  0.47193200  1
  O  O12  1  0.88078300  0.05654400  0.92144100  1
  O  O13  1  0.16363200  0.47888600  0.69189100  1
  O  O14  1  0.76908600  0.26604100  0.52047000  1
  O  O15  1  0.20056900  0.20056900  0.68435100  1
  O  O16  1  0.47888600  0.16363200  0.69189100  1
  O  O17  1  0.94345600  0.11921700  0.42144100  1
  O  O18  1  0.59425500  0.45448000  0.47193200  1
  O  O19  1  0.23091400  0.73395900  0.02047000  1
  O  O20  1  0.05654400  0.88078300  0.92144100  1
  O  O21  1  0.73395900  0.23091400  0.02047000  1
  O  O22  1  0.52111400  0.83636800  0.19189100  1
  O  O23  1  0.26604100  0.76908600  0.52047000  1
  O  O24  1  0.11921700  0.94345600  0.42144100  1
  O  O25  1  0.54552000  0.40574500  0.97193200  1
  O  O26  1  0.79943100  0.79943100  0.18435100  1
  O  O27  1  0.40574500  0.54552000  0.97193200  1
