# generated using pymatgen
data_LaBiSe2O
_symmetry_space_group_name_H-M   'P 1'
_cell_length_a   4.15404400
_cell_length_b   4.15404400
_cell_length_c   14.84366800
_cell_angle_alpha   90.00000000
_cell_angle_beta   90.00000000
_cell_angle_gamma   90.00000000
_symmetry_Int_Tables_number   1
_chemical_formula_structural   LaBiSe2O
_chemical_formula_sum   'La2 Bi2 Se4 O2'
_cell_volume   256.14354557
_cell_formula_units_Z   2
loop_
 _symmetry_equiv_pos_site_id
 _symmetry_equiv_pos_as_xyz
  1  'x, y, z'
loop_
 _atom_site_type_symbol
 _atom_site_label
 _atom_site_symmetry_multiplicity
 _atom_site_fract_x
 _atom_site_fract_y
 _atom_site_fract_z
 _atom_site_occupancy
  La  La0  1  0.00000000  0.50000000  0.91833500  1
  La  La1  1  0.50000000  0.00000000  0.08166500  1
  Bi  Bi2  1  0.00000000  0.50000000  0.36734200  1
  Bi  Bi3  1  0.50000000  0.00000000  0.63265800  1
  Se  Se4  1  0.00000000  0.50000000  0.18843800  1
  Se  Se5  1  0.50000000  0.00000000  0.81156200  1
  Se  Se6  1  0.00000000  0.50000000  0.60668300  1
  Se  Se7  1  0.50000000  0.00000000  0.39331700  1
  O  O8  1  0.00000000  0.00000000  0.00000000  1
  O  O9  1  0.50000000  0.50000000  0.00000000  1
