# generated using pymatgen
data_TiO2
_symmetry_space_group_name_H-M   'P 1'
_cell_length_a   3.13270200
_cell_length_b   5.74468500
_cell_length_c   10.51716900
_cell_angle_alpha   90.00000000
_cell_angle_beta   90.00000000
_cell_angle_gamma   90.00000000
_symmetry_Int_Tables_number   1
_chemical_formula_structural   TiO2
_chemical_formula_sum   'Ti2 O4'
_cell_volume   189.27103494
_cell_formula_units_Z   2
loop_
 _symmetry_equiv_pos_site_id
 _symmetry_equiv_pos_as_xyz
  1  'x, y, z'
loop_
 _atom_site_type_symbol
 _atom_site_label
 _atom_site_symmetry_multiplicity
 _atom_site_fract_x
 _atom_site_fract_y
 _atom_site_fract_z
 _atom_site_occupancy
  Ti  Ti0  1  0.00000000  0.50000000  0.00212100  1
  Ti  Ti1  1  0.50000000  0.00000000  0.93985000  1
  O  O2  1  0.50000000  0.73054300  0.03841400  1
  O  O3  1  0.00000000  0.00000000  0.85312700  1
  O  O4  1  0.00000000  0.50000000  0.84732400  1
  O  O5  1  0.50000000  0.26945700  0.03841400  1
