# generated using pymatgen
data_BaLa(CoO3)2
_symmetry_space_group_name_H-M   'P 1'
_cell_length_a   3.88561300
_cell_length_b   3.88561300
_cell_length_c   7.93077900
_cell_angle_alpha   90.00000000
_cell_angle_beta   90.00000000
_cell_angle_gamma   90.00000000
_symmetry_Int_Tables_number   1
_chemical_formula_structural   BaLa(CoO3)2
_chemical_formula_sum   'Ba1 La1 Co2 O6'
_cell_volume   119.73880923
_cell_formula_units_Z   1
loop_
 _symmetry_equiv_pos_site_id
 _symmetry_equiv_pos_as_xyz
  1  'x, y, z'
loop_
 _atom_site_type_symbol
 _atom_site_label
 _atom_site_symmetry_multiplicity
 _atom_site_fract_x
 _atom_site_fract_y
 _atom_site_fract_z
 _atom_site_occupancy
  Ba  Ba0  1  0.00000000  0.00000000  0.50000000  1
  La  La1  1  0.00000000  0.00000000  0.00000000  1
  Co  Co2  1  0.49999900  0.49999900  0.75122100  1
  Co  Co3  1  0.49999900  0.49999900  0.24877800  1
  O  O4  1  0.49999900  0.49999900  0.50000000  1
  O  O5  1  0.49999900  0.00000000  0.77182100  1
  O  O6  1  0.00000000  0.49999900  0.77182100  1
  O  O7  1  0.49999900  0.00000000  0.22818000  1
  O  O8  1  0.49999900  0.49999900  0.00000000  1
  O  O9  1  0.00000000  0.49999900  0.22818000  1
