# generated using pymatgen
data_CaTiO3
_symmetry_space_group_name_H-M   'P 1'
_cell_length_a   5.92377492
_cell_length_b   5.92377492
_cell_length_c   5.92377510
_cell_angle_alpha   53.59156917
_cell_angle_beta   53.59156917
_cell_angle_gamma   53.59156818
_symmetry_Int_Tables_number   1
_chemical_formula_structural   CaTiO3
_chemical_formula_sum   'Ca2 Ti2 O6'
_cell_volume   124.95341698
_cell_formula_units_Z   2
loop_
 _symmetry_equiv_pos_site_id
 _symmetry_equiv_pos_as_xyz
  1  'x, y, z'
loop_
 _atom_site_type_symbol
 _atom_site_label
 _atom_site_symmetry_multiplicity
 _atom_site_fract_x
 _atom_site_fract_y
 _atom_site_fract_z
 _atom_site_occupancy
  Ca  Ca0  1  0.63667900  0.63667900  0.63667900  1
  Ca  Ca1  1  0.36332100  0.36332100  0.36332100  1
  Ti  Ti2  1  0.85079300  0.85079300  0.85079300  1
  Ti  Ti3  1  0.14920700  0.14920700  0.14920700  1
  O  O4  1  0.18620100  0.56523800  0.97336800  1
  O  O5  1  0.97336800  0.18620100  0.56523800  1
  O  O6  1  0.43476200  0.02663200  0.81379900  1
  O  O7  1  0.56523800  0.97336800  0.18620100  1
  O  O8  1  0.02663200  0.81379900  0.43476200  1
  O  O9  1  0.81379900  0.43476200  0.02663200  1
