# generated using pymatgen
data_DyVO4
_symmetry_space_group_name_H-M   'P 1'
_cell_length_a   6.71021198
_cell_length_b   6.71021198
_cell_length_c   6.71021198
_cell_angle_alpha   135.45262275
_cell_angle_beta   135.45262275
_cell_angle_gamma   64.82773387
_symmetry_Int_Tables_number   1
_chemical_formula_structural   DyVO4
_chemical_formula_sum   'Dy2 V2 O8'
_cell_volume   146.57610148
_cell_formula_units_Z   2
loop_
 _symmetry_equiv_pos_site_id
 _symmetry_equiv_pos_as_xyz
  1  'x, y, z'
loop_
 _atom_site_type_symbol
 _atom_site_label
 _atom_site_symmetry_multiplicity
 _atom_site_fract_x
 _atom_site_fract_y
 _atom_site_fract_z
 _atom_site_occupancy
  Dy  Dy0  1  0.75000000  0.25000000  0.50000000  1
  Dy  Dy1  1  0.00000000  0.00000000  0.00000000  1
  V  V2  1  0.25000000  0.75000000  0.50000000  1
  V  V3  1  0.50000000  0.50000000  0.00000000  1
  O  O4  1  0.58726700  0.97716400  0.90316700  1
  O  O5  1  0.07399700  0.68410000  0.09683300  1
  O  O6  1  0.43410000  0.83726700  0.11010300  1
  O  O7  1  0.72716400  0.32399700  0.88989700  1
  O  O8  1  0.16273300  0.27283600  0.59683300  1
  O  O9  1  0.67600300  0.56590000  0.40316700  1
  O  O10  1  0.31590000  0.41273300  0.38989700  1
  O  O11  1  0.02283600  0.92600300  0.61010300  1
