# generated using pymatgen
data_Na2Nb4O11
_symmetry_space_group_name_H-M   'P 1'
_cell_length_a   6.33377690
_cell_length_b   6.33377690
_cell_length_c   12.96046860
_cell_angle_alpha   76.06362650
_cell_angle_beta   76.06362650
_cell_angle_gamma   59.13923866
_symmetry_Int_Tables_number   1
_chemical_formula_structural   Na2Nb4O11
_chemical_formula_sum   'Na4 Nb8 O22'
_cell_volume   428.86496554
_cell_formula_units_Z   2
loop_
 _symmetry_equiv_pos_site_id
 _symmetry_equiv_pos_as_xyz
  1  'x, y, z'
loop_
 _atom_site_type_symbol
 _atom_site_label
 _atom_site_symmetry_multiplicity
 _atom_site_fract_x
 _atom_site_fract_y
 _atom_site_fract_z
 _atom_site_occupancy
  Na  Na0  1  0.33365900  0.84809900  0.49675100  1
  Na  Na1  1  0.84809900  0.33365900  0.99675100  1
  Na  Na2  1  0.17719700  0.66781300  0.99556400  1
  Na  Na3  1  0.66781300  0.17719700  0.49556400  1
  Nb  Nb4  1  0.75273900  0.60912500  0.25342600  1
  Nb  Nb5  1  0.60912500  0.75273900  0.75342600  1
  Nb  Nb6  1  0.39167100  0.24780500  0.25304100  1
  Nb  Nb7  1  0.24780500  0.39167100  0.75304100  1
  Nb  Nb8  1  0.12502100  0.88483200  0.24111700  1
  Nb  Nb9  1  0.88483200  0.12502100  0.74111700  1
  Nb  Nb10  1  0.52490600  0.00015900  0.99791100  1
  Nb  Nb11  1  0.00015900  0.52490600  0.49791100  1
  O  O12  1  0.74704600  0.71897400  0.09360800  1
  O  O13  1  0.71897400  0.74704600  0.59360800  1
  O  O14  1  0.27679300  0.25720600  0.40777900  1
  O  O15  1  0.25720600  0.27679300  0.90777900  1
  O  O16  1  0.75143500  0.56480200  0.40913100  1
  O  O17  1  0.56480200  0.75143500  0.90913100  1
  O  O18  1  0.43696100  0.24267400  0.09367500  1
  O  O19  1  0.24267400  0.43696100  0.59367500  1
  O  O20  1  0.22102100  0.93933500  0.09165800  1
  O  O21  1  0.93933500  0.22102100  0.59165800  1
  O  O22  1  0.05448300  0.78493300  0.41021900  1
  O  O23  1  0.78493300  0.05448300  0.91021900  1
  O  O24  1  0.98856100  0.25082700  0.25116900  1
  O  O25  1  0.25082700  0.98856100  0.75116900  1
  O  O26  1  0.75113400  0.00275000  0.25064100  1
  O  O27  1  0.00275000  0.75113400  0.75064100  1
  O  O28  1  0.40302000  0.90728600  0.28368400  1
  O  O29  1  0.90728600  0.40302000  0.78368400  1
  O  O30  1  0.09455500  0.59213800  0.21814000  1
  O  O31  1  0.59213800  0.09455500  0.71814000  1
  O  O32  1  0.49404400  0.50697600  0.25104400  1
  O  O33  1  0.50697600  0.49404400  0.75104400  1
