# generated using pymatgen
data_TiMn2O4
_symmetry_space_group_name_H-M   'P 1'
_cell_length_a   6.23287700
_cell_length_b   6.23293600
_cell_length_c   8.70939300
_cell_angle_alpha   89.99988564
_cell_angle_beta   89.99986987
_cell_angle_gamma   90.00025739
_symmetry_Int_Tables_number   1
_chemical_formula_structural   TiMn2O4
_chemical_formula_sum   'Ti4 Mn8 O16'
_cell_volume   338.35228371
_cell_formula_units_Z   4
loop_
 _symmetry_equiv_pos_site_id
 _symmetry_equiv_pos_as_xyz
  1  'x, y, z'
loop_
 _atom_site_type_symbol
 _atom_site_label
 _atom_site_symmetry_multiplicity
 _atom_site_fract_x
 _atom_site_fract_y
 _atom_site_fract_z
 _atom_site_occupancy
  Ti  Ti0  1  0.49999800  0.24463600  0.00000000  1
  Ti  Ti1  1  0.75536000  0.49999700  0.74999900  1
  Ti  Ti2  1  0.24463900  0.50000000  0.25000100  1
  Ti  Ti3  1  0.49999600  0.75536000  0.50000200  1
  Mn  Mn4  1  0.00000500  0.25542500  0.00000100  1
  Mn  Mn5  1  0.74457600  0.00000000  0.74999700  1
  Mn  Mn6  1  0.25542800  0.00000200  0.25000500  1
  Mn  Mn7  1  0.00000100  0.74458000  0.49999800  1
  Mn  Mn8  1  0.25185000  0.25185800  0.62499700  1
  Mn  Mn9  1  0.74815100  0.25185000  0.37500100  1
  Mn  Mn10  1  0.25185100  0.74814900  0.87500300  1
  Mn  Mn11  1  0.74814500  0.74815000  0.12500200  1
  O  O12  1  0.27183600  0.03641700  0.99630900  1
  O  O13  1  0.96358400  0.27183700  0.74629200  1
  O  O14  1  0.03641500  0.72816000  0.24629000  1
  O  O15  1  0.27183500  0.96358100  0.50369200  1
  O  O16  1  0.72816500  0.03641500  0.00369000  1
  O  O17  1  0.72815900  0.96358600  0.49630800  1
  O  O18  1  0.03641400  0.27183700  0.25370600  1
  O  O19  1  0.96358200  0.72816400  0.75371100  1
  O  O20  1  0.27056400  0.48608000  0.02222800  1
  O  O21  1  0.51392300  0.27056600  0.77222300  1
  O  O22  1  0.48608100  0.72943000  0.27222500  1
  O  O23  1  0.27056400  0.51392200  0.47777100  1
  O  O24  1  0.72943500  0.48608000  0.97777200  1
  O  O25  1  0.72944100  0.51392200  0.52222700  1
  O  O26  1  0.48608100  0.27056700  0.22777500  1
  O  O27  1  0.51392200  0.72943000  0.72777400  1
