# generated using pymatgen
data_AsH6NO4
_symmetry_space_group_name_H-M   'P 1'
_cell_length_a   6.72078640
_cell_length_b   6.72078640
_cell_length_c   6.72078640
_cell_angle_alpha   110.80195787
_cell_angle_beta   110.80195787
_cell_angle_gamma   106.84132451
_symmetry_Int_Tables_number   1
_chemical_formula_structural   AsH6NO4
_chemical_formula_sum   'As2 H12 N2 O8'
_cell_volume   233.32193889
_cell_formula_units_Z   2
loop_
 _symmetry_equiv_pos_site_id
 _symmetry_equiv_pos_as_xyz
  1  'x, y, z'
loop_
 _atom_site_type_symbol
 _atom_site_label
 _atom_site_symmetry_multiplicity
 _atom_site_fract_x
 _atom_site_fract_y
 _atom_site_fract_z
 _atom_site_occupancy
  As  As0  1  0.75000000  0.25000000  0.50000000  1
  As  As1  1  0.00000000  0.00000000  0.00000000  1
  H  H2  1  0.21158100  0.80748900  0.37306300  1
  H  H3  1  0.31557500  0.44251100  0.90409200  1
  H  H4  1  0.43442500  0.83851700  0.62693700  1
  H  H5  1  0.53841900  0.41148300  0.09590800  1
  H  H6  1  0.16148300  0.78841900  0.59590800  1
  H  H7  1  0.55748900  0.46158100  0.87306300  1
  H  H8  1  0.19251100  0.56557500  0.40409200  1
  H  H9  1  0.58851700  0.68442500  0.12693700  1
  H  H10  1  0.71782700  0.12500000  0.09282700  1
  H  H11  1  0.03217300  0.62500000  0.90717300  1
  H  H12  1  0.37500000  0.28217300  0.40717300  1
  H  H13  1  0.87500000  0.96782700  0.59282700  1
  N  N14  1  0.25000000  0.75000000  0.50000000  1
  N  N15  1  0.50000000  0.50000000  0.00000000  1
  O  O16  1  0.70493300  0.27793900  0.24429500  1
  O  O17  1  0.71635500  0.97206100  0.92699400  1
  O  O18  1  0.03364500  0.46063800  0.75570500  1
  O  O19  1  0.04506700  0.78936200  0.07300600  1
  O  O20  1  0.53936200  0.29506700  0.57300600  1
  O  O21  1  0.02793900  0.95493300  0.74429500  1
  O  O22  1  0.72206100  0.96635500  0.42699400  1
  O  O23  1  0.21063800  0.28364500  0.25570500  1
