# generated using pymatgen
data_Ca3(CoO3)2
_symmetry_space_group_name_H-M   'P 1'
_cell_length_a   6.32477613
_cell_length_b   6.32477613
_cell_length_c   6.32477605
_cell_angle_alpha   92.42886910
_cell_angle_beta   92.42886910
_cell_angle_gamma   92.42887999
_symmetry_Int_Tables_number   1
_chemical_formula_structural   Ca3(CoO3)2
_chemical_formula_sum   'Ca6 Co4 O12'
_cell_volume   252.30687552
_cell_formula_units_Z   2
loop_
 _symmetry_equiv_pos_site_id
 _symmetry_equiv_pos_as_xyz
  1  'x, y, z'
loop_
 _atom_site_type_symbol
 _atom_site_label
 _atom_site_symmetry_multiplicity
 _atom_site_fract_x
 _atom_site_fract_y
 _atom_site_fract_z
 _atom_site_occupancy
  Ca  Ca0  1  0.88132400  0.61867600  0.25000000  1
  Ca  Ca1  1  0.61867600  0.25000000  0.88132400  1
  Ca  Ca2  1  0.25000000  0.88132400  0.61867600  1
  Ca  Ca3  1  0.11867600  0.38132400  0.75000000  1
  Ca  Ca4  1  0.75000000  0.11867600  0.38132400  1
  Ca  Ca5  1  0.38132400  0.75000000  0.11867600  1
  Co  Co6  1  0.00000000  0.00000000  0.00000000  1
  Co  Co7  1  0.50000000  0.50000000  0.50000000  1
  Co  Co8  1  0.25000000  0.25000000  0.25000000  1
  Co  Co9  1  0.75000000  0.75000000  0.75000000  1
  O  O10  1  0.59447400  0.78979600  0.46199600  1
  O  O11  1  0.46199600  0.59447400  0.78979600  1
  O  O12  1  0.78979600  0.46199600  0.59447400  1
  O  O13  1  0.90552600  0.03800400  0.71020400  1
  O  O14  1  0.71020400  0.90552600  0.03800400  1
  O  O15  1  0.03800400  0.71020400  0.90552600  1
  O  O16  1  0.40552600  0.21020400  0.53800400  1
  O  O17  1  0.53800400  0.40552600  0.21020400  1
  O  O18  1  0.21020400  0.53800400  0.40552600  1
  O  O19  1  0.09447400  0.96199600  0.28979600  1
  O  O20  1  0.96199600  0.28979600  0.09447400  1
  O  O21  1  0.28979600  0.09447400  0.96199600  1
