# generated using pymatgen
data_NbAgO3
_symmetry_space_group_name_H-M   'P 1'
_cell_length_a   5.63271200
_cell_length_b   5.63271200
_cell_length_c   4.03177700
_cell_angle_alpha   90.00000000
_cell_angle_beta   90.00000000
_cell_angle_gamma   90.00000000
_symmetry_Int_Tables_number   1
_chemical_formula_structural   NbAgO3
_chemical_formula_sum   'Nb2 Ag2 O6'
_cell_volume   127.91798090
_cell_formula_units_Z   2
loop_
 _symmetry_equiv_pos_site_id
 _symmetry_equiv_pos_as_xyz
  1  'x, y, z'
loop_
 _atom_site_type_symbol
 _atom_site_label
 _atom_site_symmetry_multiplicity
 _atom_site_fract_x
 _atom_site_fract_y
 _atom_site_fract_z
 _atom_site_occupancy
  Nb  Nb0  1  0.50000000  0.50000000  0.00000000  1
  Nb  Nb1  1  0.00000000  0.00000000  0.00000000  1
  Ag  Ag2  1  0.50000000  0.00000000  0.50000000  1
  Ag  Ag3  1  0.00000000  0.50000000  0.50000000  1
  O  O4  1  0.50000000  0.50000000  0.50000000  1
  O  O5  1  0.00000000  0.00000000  0.50000000  1
  O  O6  1  0.79615400  0.70384600  0.00000000  1
  O  O7  1  0.20384600  0.29615400  0.00000000  1
  O  O8  1  0.70384600  0.20384600  0.00000000  1
  O  O9  1  0.29615400  0.79615400  0.00000000  1
