# generated using pymatgen
data_Ga2O3
_symmetry_space_group_name_H-M   'P 1'
_cell_length_a   10.11835179
_cell_length_b   10.20741777
_cell_length_c   10.45180393
_cell_angle_alpha   93.17280177
_cell_angle_beta   87.57453181
_cell_angle_gamma   91.44597087
_symmetry_Int_Tables_number   1
_chemical_formula_structural   Ga2O3
_chemical_formula_sum   'Ga32 O48'
_cell_volume   1076.58188995
_cell_formula_units_Z   16
loop_
 _symmetry_equiv_pos_site_id
 _symmetry_equiv_pos_as_xyz
  1  'x, y, z'
loop_
 _atom_site_type_symbol
 _atom_site_label
 _atom_site_symmetry_multiplicity
 _atom_site_fract_x
 _atom_site_fract_y
 _atom_site_fract_z
 _atom_site_occupancy
  Ga  Ga0  1  0.22152354  0.69391031  0.83257378  1
  Ga  Ga1  1  0.55507754  0.31035095  0.74153041  1
  Ga  Ga2  1  0.08751842  0.22143800  0.93949931  1
  Ga  Ga3  1  0.02795198  0.91661990  0.00079234  1
  Ga  Ga4  1  0.26189078  0.52500691  0.53258581  1
  Ga  Ga5  1  0.02776314  0.48298748  0.77138139  1
  Ga  Ga6  1  0.52684407  0.68265129  0.93426518  1
  Ga  Ga7  1  0.87498371  0.86412184  0.24474029  1
  Ga  Ga8  1  0.13034965  0.06859891  0.63770306  1
  Ga  Ga9  1  0.47951504  0.03993463  0.55339197  1
  Ga  Ga10  1  0.79963627  0.03683094  0.69122613  1
  Ga  Ga11  1  0.42953923  0.17251141  0.26833183  1
  Ga  Ga12  1  0.85295960  0.39812728  0.29547263  1
  Ga  Ga13  1  0.94773383  0.78668713  0.71621625  1
  Ga  Ga14  1  0.68128340  0.24980914  0.47650117  1
  Ga  Ga15  1  0.29970773  0.80256537  0.56343193  1
  Ga  Ga16  1  0.61764536  0.76159542  0.64897526  1
  Ga  Ga17  1  0.83445856  0.14402071  0.15474122  1
  Ga  Ga18  1  0.36793721  0.40435905  0.02646944  1
  Ga  Ga19  1  0.36357243  0.63765152  0.26320145  1
  Ga  Ga20  1  0.34232708  0.90379088  0.06678666  1
  Ga  Ga21  1  0.36275674  0.14149775  0.84610533  1
  Ga  Ga22  1  0.07152310  0.76403151  0.41928607  1
  Ga  Ga23  1  0.69877306  0.66310328  0.36110671  1
  Ga  Ga24  1  0.02166082  0.33257264  0.49288604  1
  Ga  Ga25  1  0.57955334  0.88714372  0.18248668  1
  Ga  Ga26  1  0.73544547  0.51024206  0.65765926  1
  Ga  Ga27  1  0.80714008  0.28763933  0.90867550  1
  Ga  Ga28  1  0.62594670  0.01124587  0.95689177  1
  Ga  Ga29  1  0.58942489  0.46469081  0.18142020  1
  Ga  Ga30  1  0.20863150  0.36326106  0.24760287  1
  Ga  Ga31  1  0.10990891  0.06748556  0.32263275  1
  O  O32  1  0.31630690  0.65269761  0.66107190  1
  O  O33  1  0.11230502  0.44061404  0.60824905  1
  O  O34  1  0.82346933  0.31048197  0.08219841  1
  O  O35  1  0.89280851  0.59571857  0.72963713  1
  O  O36  1  0.70334633  0.64259112  0.53356645  1
  O  O37  1  0.50664873  0.16024581  0.42762996  1
  O  O38  1  0.52619923  0.58329292  0.31661356  1
  O  O39  1  0.44015502  0.03221561  0.95179815  1
  O  O40  1  0.76452754  0.85651441  0.71394350  1
  O  O41  1  0.28843129  0.98357717  0.59170672  1
  O  O42  1  0.84469304  0.38759934  0.50302113  1
  O  O43  1  0.24189654  0.18418721  0.27142969  1
  O  O44  1  0.71114506  0.09948469  0.56259300  1
  O  O45  1  0.96699876  0.09674850  0.00234823  1
  O  O46  1  0.68492265  0.04472951  0.12166540  1
  O  O47  1  0.74106594  0.25297002  0.30510034  1
  O  O48  1  0.25580902  0.68060444  0.41435343  1
  O  O49  1  0.07753396  0.16236157  0.49899170  1
  O  O50  1  0.29917719  0.40871311  0.40328362  1
  O  O51  1  0.48566550  0.13830165  0.70721003  1
  O  O52  1  0.27433139  0.51231401  0.16099688  1
  O  O53  1  0.15565778  0.91000825  0.36864476  1
  O  O54  1  0.75792625  0.53002168  0.23674687  1
  O  O55  1  0.17477899  0.95268433  0.09105443  1
  O  O56  1  0.89634769  0.82257821  0.07696950  1
  O  O57  1  0.61724314  0.83321593  0.99789599  1
  O  O58  1  0.72998971  0.11779377  0.85039009  1
  O  O59  1  0.03067085  0.37037209  0.31316525  1
  O  O60  1  0.16093537  0.53406156  0.87373418  1
  O  O61  1  0.21087526  0.29471160  0.04661594  1
  O  O62  1  0.42421379  0.76591374  0.15908541  1
  O  O63  1  0.18914211  0.13781616  0.80118982  1
  O  O64  1  0.47832026  0.31493247  0.16230262  1
  O  O65  1  0.52417369  0.52683852  0.02608655  1
  O  O66  1  0.07283187  0.80907855  0.84924890  1
  O  O67  1  0.69251682  0.83335648  0.30130635  1
  O  O68  1  0.36162820  0.76843253  0.91615183  1
  O  O69  1  0.49686350  0.85414638  0.55987203  1
  O  O70  1  0.71113699  0.38535853  0.80422782  1
  O  O71  1  0.41746281  0.32155743  0.86706747  1
  O  O72  1  0.97726270  0.31676585  0.83410903  1
  O  O73  1  0.59326129  0.63413690  0.76783395  1
  O  O74  1  0.59644515  0.38520118  0.58671008  1
  O  O75  1  0.08742941  0.75714889  0.59244462  1
  O  O76  1  0.93200976  0.04642034  0.27110980  1
  O  O77  1  0.91326722  0.72868479  0.35119687  1
  O  O78  1  0.43670908  0.00143159  0.20720661  1
  O  O79  1  0.97405721  0.98983232  0.69007824  1
