# generated using pymatgen
data_BaFe12O19
_symmetry_space_group_name_H-M   'P 1'
_cell_length_a   6.01075206
_cell_length_b   6.01075206
_cell_length_c   23.54887000
_cell_angle_alpha   90.00000000
_cell_angle_beta   90.00000000
_cell_angle_gamma   120.00000069
_symmetry_Int_Tables_number   1
_chemical_formula_structural   BaFe12O19
_chemical_formula_sum   'Ba2 Fe24 O38'
_cell_volume   736.81478037
_cell_formula_units_Z   2
loop_
 _symmetry_equiv_pos_site_id
 _symmetry_equiv_pos_as_xyz
  1  'x, y, z'
loop_
 _atom_site_type_symbol
 _atom_site_label
 _atom_site_symmetry_multiplicity
 _atom_site_fract_x
 _atom_site_fract_y
 _atom_site_fract_z
 _atom_site_occupancy
  Ba  Ba0  1  0.66666700  0.33333300  0.25090300  1
  Ba  Ba1  1  0.33333300  0.66666700  0.75090300  1
  Fe  Fe2  1  0.16875000  0.83125000  0.60838700  1
  Fe  Fe3  1  0.16875000  0.33749900  0.60838700  1
  Fe  Fe4  1  0.66250100  0.83125000  0.60838700  1
  Fe  Fe5  1  0.83253300  0.16746700  0.39081800  1
  Fe  Fe6  1  0.83253300  0.66506600  0.39081800  1
  Fe  Fe7  1  0.33493400  0.16746700  0.39081800  1
  Fe  Fe8  1  0.83125000  0.16875000  0.10838700  1
  Fe  Fe9  1  0.83125000  0.66250100  0.10838700  1
  Fe  Fe10  1  0.33749900  0.16875000  0.10838700  1
  Fe  Fe11  1  0.16746700  0.83253300  0.89081800  1
  Fe  Fe12  1  0.16746700  0.33493400  0.89081800  1
  Fe  Fe13  1  0.66506600  0.83253300  0.89081800  1
  Fe  Fe14  1  0.33333300  0.66666700  0.30917200  1
  Fe  Fe15  1  0.66666700  0.33333300  0.69081400  1
  Fe  Fe16  1  0.66666700  0.33333300  0.80917200  1
  Fe  Fe17  1  0.33333300  0.66666700  0.19081400  1
  Fe  Fe18  1  0.33333300  0.66666700  0.47206200  1
  Fe  Fe19  1  0.66666700  0.33333300  0.52714100  1
  Fe  Fe20  1  0.66666700  0.33333300  0.97206200  1
  Fe  Fe21  1  0.33333300  0.66666700  0.02714100  1
  Fe  Fe22  1  0.00000000  0.00000000  0.49983400  1
  Fe  Fe23  1  0.00000000  0.00000000  0.99983400  1
  Fe  Fe24  1  0.00000000  0.00000000  0.24320500  1
  Fe  Fe25  1  0.00000000  0.00000000  0.74320500  1
  O  O26  1  0.00000000  0.00000000  0.34872100  1
  O  O27  1  0.00000000  0.00000000  0.65171900  1
  O  O28  1  0.00000000  0.00000000  0.84872100  1
  O  O29  1  0.00000000  0.00000000  0.15171900  1
  O  O30  1  0.50274000  0.49726000  0.35014400  1
  O  O31  1  0.50274000  0.00548000  0.35014400  1
  O  O32  1  0.99452000  0.49726000  0.35014400  1
  O  O33  1  0.49663200  0.50336800  0.64958000  1
  O  O34  1  0.49663200  0.99326500  0.64958000  1
  O  O35  1  0.00673500  0.50336800  0.64958000  1
  O  O36  1  0.49726000  0.50274000  0.85014400  1
  O  O37  1  0.49726000  0.99452000  0.85014400  1
  O  O38  1  0.00548000  0.50274000  0.85014400  1
  O  O39  1  0.50336800  0.49663200  0.14958000  1
  O  O40  1  0.50336800  0.00673500  0.14958000  1
  O  O41  1  0.99326500  0.49663200  0.14958000  1
  O  O42  1  0.15536400  0.84463600  0.44745500  1
  O  O43  1  0.15536400  0.31072800  0.44745500  1
  O  O44  1  0.68927200  0.84463600  0.44745500  1
  O  O45  1  0.84472100  0.15527900  0.55272100  1
  O  O46  1  0.84472100  0.68944300  0.55272100  1
  O  O47  1  0.31055700  0.15527900  0.55272100  1
  O  O48  1  0.84463600  0.15536400  0.94745500  1
  O  O49  1  0.84463600  0.68927200  0.94745500  1
  O  O50  1  0.31072800  0.15536400  0.94745500  1
  O  O51  1  0.15527900  0.84472100  0.05272100  1
  O  O52  1  0.15527900  0.31055700  0.05272100  1
  O  O53  1  0.68944300  0.84472100  0.05272100  1
  O  O54  1  0.18238200  0.81761800  0.24944800  1
  O  O55  1  0.18238200  0.36476400  0.24944800  1
  O  O56  1  0.63523600  0.81761800  0.24944800  1
  O  O57  1  0.81761800  0.18238200  0.74944800  1
  O  O58  1  0.81761800  0.63523600  0.74944800  1
  O  O59  1  0.36476400  0.18238200  0.74944800  1
  O  O60  1  0.33333300  0.66666700  0.55532700  1
  O  O61  1  0.66666700  0.33333300  0.44444200  1
  O  O62  1  0.66666700  0.33333300  0.05532700  1
  O  O63  1  0.33333300  0.66666700  0.94444200  1
