# generated using pymatgen
data_Ca3Ru2O7
_symmetry_space_group_name_H-M   'P 1'
_cell_length_a   10.17667473
_cell_length_b   10.17667473
_cell_length_c   5.63838800
_cell_angle_alpha   90.00000000
_cell_angle_beta   90.00000000
_cell_angle_gamma   149.06281521
_symmetry_Int_Tables_number   1
_chemical_formula_structural   Ca3Ru2O7
_chemical_formula_sum   'Ca6 Ru4 O14'
_cell_volume   300.20137790
_cell_formula_units_Z   2
loop_
 _symmetry_equiv_pos_site_id
 _symmetry_equiv_pos_as_xyz
  1  'x, y, z'
loop_
 _atom_site_type_symbol
 _atom_site_label
 _atom_site_symmetry_multiplicity
 _atom_site_fract_x
 _atom_site_fract_y
 _atom_site_fract_z
 _atom_site_occupancy
  Ca  Ca0  1  0.55419700  0.93147100  0.31032200  1
  Ca  Ca1  1  0.44580300  0.06852900  0.81032200  1
  Ca  Ca2  1  0.06852900  0.44580300  0.81032200  1
  Ca  Ca3  1  0.93147100  0.55419700  0.31032200  1
  Ca  Ca4  1  0.26764600  0.26764600  0.68873400  1
  Ca  Ca5  1  0.73235400  0.73235400  0.18873400  1
  Ru  Ru6  1  0.65343300  0.85152700  0.75098800  1
  Ru  Ru7  1  0.34656700  0.14847300  0.25098800  1
  Ru  Ru8  1  0.14847300  0.34656700  0.25098800  1
  Ru  Ru9  1  0.85152700  0.65343300  0.75098800  1
  O  O10  1  0.06856700  0.83021000  0.04520700  1
  O  O11  1  0.93143300  0.16979000  0.54520700  1
  O  O12  1  0.16979000  0.93143300  0.54520700  1
  O  O13  1  0.83021000  0.06856700  0.04520700  1
  O  O14  1  0.52564000  0.36615700  0.94960500  1
  O  O15  1  0.47436000  0.63384300  0.44960500  1
  O  O16  1  0.63384300  0.47436000  0.44960500  1
  O  O17  1  0.36615700  0.52564000  0.94960500  1
  O  O18  1  0.15674900  0.15674900  0.27454400  1
  O  O19  1  0.84325100  0.84325100  0.77454400  1
  O  O20  1  0.12633100  0.52430600  0.22629000  1
  O  O21  1  0.87366900  0.47569400  0.72629000  1
  O  O22  1  0.47569400  0.87366900  0.72629000  1
  O  O23  1  0.52430600  0.12633100  0.22629000  1
