# generated using pymatgen
data_Fe5(BiO4)3
_symmetry_space_group_name_H-M   'P 1'
_cell_length_a   10.94165247
_cell_length_b   10.94165247
_cell_length_c   10.94165247
_cell_angle_alpha   109.47122063
_cell_angle_beta   109.47122063
_cell_angle_gamma   109.47122063
_symmetry_Int_Tables_number   1
_chemical_formula_structural   Fe5(BiO4)3
_chemical_formula_sum   'Fe20 Bi12 O48'
_cell_volume   1008.38611988
_cell_formula_units_Z   4
loop_
 _symmetry_equiv_pos_site_id
 _symmetry_equiv_pos_as_xyz
  1  'x, y, z'
loop_
 _atom_site_type_symbol
 _atom_site_label
 _atom_site_symmetry_multiplicity
 _atom_site_fract_x
 _atom_site_fract_y
 _atom_site_fract_z
 _atom_site_occupancy
  Fe  Fe0  1  0.75000000  0.37500000  0.62500000  1
  Fe  Fe1  1  0.87500000  0.12500000  0.75000000  1
  Fe  Fe2  1  0.00000000  0.50000000  0.50000000  1
  Fe  Fe3  1  0.87500000  0.25000000  0.12500000  1
  Fe  Fe4  1  0.00000000  0.00000000  0.50000000  1
  Fe  Fe5  1  0.00000000  0.50000000  0.00000000  1
  Fe  Fe6  1  0.25000000  0.62500000  0.37500000  1
  Fe  Fe7  1  0.00000000  0.00000000  0.00000000  1
  Fe  Fe8  1  0.37500000  0.25000000  0.62500000  1
  Fe  Fe9  1  0.12500000  0.87500000  0.25000000  1
  Fe  Fe10  1  0.50000000  0.50000000  0.50000000  1
  Fe  Fe11  1  0.62500000  0.75000000  0.37500000  1
  Fe  Fe12  1  0.37500000  0.62500000  0.75000000  1
  Fe  Fe13  1  0.12500000  0.75000000  0.87500000  1
  Fe  Fe14  1  0.25000000  0.12500000  0.87500000  1
  Fe  Fe15  1  0.50000000  0.00000000  0.50000000  1
  Fe  Fe16  1  0.50000000  0.50000000  0.00000000  1
  Fe  Fe17  1  0.62500000  0.37500000  0.25000000  1
  Fe  Fe18  1  0.50000000  0.00000000  0.00000000  1
  Fe  Fe19  1  0.75000000  0.87500000  0.12500000  1
  Bi  Bi20  1  0.12500000  0.37500000  0.75000000  1
  Bi  Bi21  1  0.25000000  0.87500000  0.62500000  1
  Bi  Bi22  1  0.12500000  0.25000000  0.37500000  1
  Bi  Bi23  1  0.37500000  0.75000000  0.12500000  1
  Bi  Bi24  1  0.62500000  0.87500000  0.75000000  1
  Bi  Bi25  1  0.25000000  0.37500000  0.12500000  1
  Bi  Bi26  1  0.62500000  0.25000000  0.87500000  1
  Bi  Bi27  1  0.75000000  0.62500000  0.87500000  1
  Bi  Bi28  1  0.37500000  0.12500000  0.25000000  1
  Bi  Bi29  1  0.87500000  0.75000000  0.62500000  1
  Bi  Bi30  1  0.75000000  0.12500000  0.37500000  1
  Bi  Bi31  1  0.87500000  0.62500000  0.25000000  1
  O  O32  1  0.40527600  0.07828900  0.88669200  1
  O  O33  1  0.42171100  0.09472400  0.61330800  1
  O  O34  1  0.42171100  0.82698700  0.80840300  1
  O  O35  1  0.90527600  0.38669200  0.57828900  1
  O  O36  1  0.40527600  0.82698700  0.51858400  1
  O  O37  1  0.67301300  0.09472400  0.98141600  1
  O  O38  1  0.92171100  0.11330800  0.59472400  1
  O  O39  1  0.92171100  0.30840300  0.32698700  1
  O  O40  1  0.51858400  0.61330800  0.69159700  1
  O  O41  1  0.67301300  0.07828900  0.69159700  1
  O  O42  1  0.90527600  0.01858400  0.32698700  1
  O  O43  1  0.51858400  0.40527600  0.82698700  1
  O  O44  1  0.69159700  0.67301300  0.07828900  1
  O  O45  1  0.61330800  0.42171100  0.09472400  1
  O  O46  1  0.17301300  0.48141600  0.59472400  1
  O  O47  1  0.80840300  0.88669200  0.98141600  1
  O  O48  1  0.61330800  0.69159700  0.51858400  1
  O  O49  1  0.01858400  0.19159700  0.11330800  1
  O  O50  1  0.17301300  0.19159700  0.57828900  1
  O  O51  1  0.88669200  0.98141600  0.80840300  1
  O  O52  1  0.19159700  0.57828900  0.17301300  1
  O  O53  1  0.11330800  0.59472400  0.92171100  1
  O  O54  1  0.01858400  0.32698700  0.90527600  1
  O  O55  1  0.69159700  0.51858400  0.61330800  1
  O  O56  1  0.30840300  0.48141600  0.38669200  1
  O  O57  1  0.98141600  0.67301300  0.09472400  1
  O  O58  1  0.88669200  0.40527600  0.07828900  1
  O  O59  1  0.80840300  0.42171100  0.82698700  1
  O  O60  1  0.11330800  0.01858400  0.19159700  1
  O  O61  1  0.82698700  0.80840300  0.42171100  1
  O  O62  1  0.98141600  0.80840300  0.88669200  1
  O  O63  1  0.38669200  0.30840300  0.48141600  1
  O  O64  1  0.19159700  0.11330800  0.01858400  1
  O  O65  1  0.82698700  0.51858400  0.40527600  1
  O  O66  1  0.38669200  0.57828900  0.90527600  1
  O  O67  1  0.30840300  0.32698700  0.92171100  1
  O  O68  1  0.48141600  0.59472400  0.17301300  1
  O  O69  1  0.09472400  0.98141600  0.67301300  1
  O  O70  1  0.32698700  0.92171100  0.30840300  1
  O  O71  1  0.48141600  0.38669200  0.30840300  1
  O  O72  1  0.07828900  0.69159700  0.67301300  1
  O  O73  1  0.07828900  0.88669200  0.40527600  1
  O  O74  1  0.32698700  0.90527600  0.01858400  1
  O  O75  1  0.59472400  0.17301300  0.48141600  1
  O  O76  1  0.09472400  0.61330800  0.42171100  1
  O  O77  1  0.57828900  0.17301300  0.19159700  1
  O  O78  1  0.57828900  0.90527600  0.38669200  1
  O  O79  1  0.59472400  0.92171100  0.11330800  1
