# generated using pymatgen
data_Nb2PbO6
_symmetry_space_group_name_H-M   'P 1'
_cell_length_a   7.31478054
_cell_length_b   7.31478054
_cell_length_c   7.31478084
_cell_angle_alpha   93.64149940
_cell_angle_beta   93.64149940
_cell_angle_gamma   93.64150897
_symmetry_Int_Tables_number   1
_chemical_formula_structural   Nb2PbO6
_chemical_formula_sum   'Nb6 Pb3 O18'
_cell_volume   388.90841412
_cell_formula_units_Z   3
loop_
 _symmetry_equiv_pos_site_id
 _symmetry_equiv_pos_as_xyz
  1  'x, y, z'
loop_
 _atom_site_type_symbol
 _atom_site_label
 _atom_site_symmetry_multiplicity
 _atom_site_fract_x
 _atom_site_fract_y
 _atom_site_fract_z
 _atom_site_occupancy
  Nb  Nb0  1  0.54193500  0.83953200  0.20059200  1
  Nb  Nb1  1  0.83953200  0.20059200  0.54193500  1
  Nb  Nb2  1  0.20059200  0.54193500  0.83953200  1
  Nb  Nb3  1  0.15226200  0.81076400  0.50754100  1
  Nb  Nb4  1  0.81076400  0.50754100  0.15226200  1
  Nb  Nb5  1  0.50754100  0.15226200  0.81076400  1
  Pb  Pb6  1  0.99426800  0.99426800  0.99426800  1
  Pb  Pb7  1  0.35783800  0.35783800  0.35783800  1
  Pb  Pb8  1  0.68599500  0.68599500  0.68599500  1
  O  O9  1  0.40095500  0.67582800  0.95583200  1
  O  O10  1  0.67582800  0.95583200  0.40095500  1
  O  O11  1  0.95583200  0.40095500  0.67582800  1
  O  O12  1  0.95342000  0.67427200  0.38915300  1
  O  O13  1  0.67427200  0.38915300  0.95342000  1
  O  O14  1  0.38915300  0.95342000  0.67427200  1
  O  O15  1  0.76909100  0.05390900  0.76963300  1
  O  O16  1  0.05390900  0.76963300  0.76909100  1
  O  O17  1  0.76963300  0.76909100  0.05390900  1
  O  O18  1  0.05268000  0.51636400  0.05022000  1
  O  O19  1  0.51636400  0.05022000  0.05268000  1
  O  O20  1  0.05022000  0.05268000  0.51636400  1
  O  O21  1  0.57988900  0.29161200  0.58069800  1
  O  O22  1  0.29161200  0.58069800  0.57988900  1
  O  O23  1  0.58069800  0.57988900  0.29161200  1
  O  O24  1  0.29557300  0.84523600  0.29470600  1
  O  O25  1  0.84523600  0.29470600  0.29557300  1
  O  O26  1  0.29470600  0.29557300  0.84523600  1
