# generated using pymatgen
data_La3TaCo2O9
_symmetry_space_group_name_H-M   'P 1'
_cell_length_a   5.78294500
_cell_length_b   8.03839600
_cell_length_c   18.68979546
_cell_angle_alpha   64.61797461
_cell_angle_beta   90.00000000
_cell_angle_gamma   90.00000000
_symmetry_Int_Tables_number   1
_chemical_formula_structural   La3TaCo2O9
_chemical_formula_sum   'La12 Ta4 Co8 O36'
_cell_volume   784.94034844
_cell_formula_units_Z   4
loop_
 _symmetry_equiv_pos_site_id
 _symmetry_equiv_pos_as_xyz
  1  'x, y, z'
loop_
 _atom_site_type_symbol
 _atom_site_label
 _atom_site_symmetry_multiplicity
 _atom_site_fract_x
 _atom_site_fract_y
 _atom_site_fract_z
 _atom_site_occupancy
  La  La0  1  0.55091600  0.10860700  0.65456600  1
  La  La1  1  0.54364800  0.42282100  0.33792100  1
  La  La2  1  0.55914100  0.73486600  0.99599100  1
  La  La3  1  0.94085900  0.73486600  0.49599100  1
  La  La4  1  0.94908400  0.10860700  0.15456600  1
  La  La5  1  0.95635200  0.42282100  0.83792100  1
  La  La6  1  0.44908400  0.89139300  0.34543400  1
  La  La7  1  0.44085900  0.26513400  0.00400900  1
  La  La8  1  0.45635200  0.57717900  0.66207900  1
  La  La9  1  0.05914100  0.26513400  0.50400900  1
  La  La10  1  0.04364800  0.57717900  0.16207900  1
  La  La11  1  0.05091600  0.89139300  0.84543400  1
  Ta  Ta12  1  0.50105800  0.83557600  0.16674000  1
  Ta  Ta13  1  0.49894200  0.16442400  0.83326000  1
  Ta  Ta14  1  0.99894200  0.83557600  0.66674000  1
  Ta  Ta15  1  0.00105800  0.16442400  0.33326000  1
  Co  Co16  1  0.00358300  0.32998300  0.66979900  1
  Co  Co17  1  0.99641700  0.67001700  0.33020100  1
  Co  Co18  1  0.00000000  0.00000000  0.00000000  1
  Co  Co19  1  0.50000000  0.00000000  0.50000000  1
  Co  Co20  1  0.49641700  0.32998300  0.16979900  1
  Co  Co21  1  0.50358300  0.67001700  0.83020100  1
  Co  Co22  1  0.50000000  0.50000000  0.50000000  1
  Co  Co23  1  0.00000000  0.50000000  0.00000000  1
  O  O24  1  0.29685500  0.35526300  0.60263500  1
  O  O25  1  0.30336400  0.69129600  0.26265800  1
  O  O26  1  0.30578500  0.01949200  0.92738600  1
  O  O27  1  0.19421500  0.01949200  0.42738600  1
  O  O28  1  0.20314500  0.35526300  0.10263500  1
  O  O29  1  0.19663600  0.69129600  0.76265800  1
  O  O30  1  0.70314500  0.64473700  0.39736500  1
  O  O31  1  0.69421500  0.98050800  0.07261400  1
  O  O32  1  0.69663600  0.30870400  0.73734200  1
  O  O33  1  0.80578500  0.98050800  0.57261400  1
  O  O34  1  0.80336400  0.30870400  0.23734200  1
  O  O35  1  0.79685500  0.64473700  0.89736500  1
  O  O36  1  0.80150400  0.38252200  0.56938500  1
  O  O37  1  0.78628900  0.71614000  0.22957900  1
  O  O38  1  0.78415800  0.05253300  0.89678600  1
  O  O39  1  0.71584200  0.05253300  0.39678600  1
  O  O40  1  0.69849600  0.38252200  0.06938500  1
  O  O41  1  0.71371100  0.71614000  0.72957900  1
  O  O42  1  0.19849600  0.61747800  0.43061500  1
  O  O43  1  0.21584200  0.94746700  0.10321400  1
  O  O44  1  0.21371100  0.28386000  0.77042100  1
  O  O45  1  0.28415800  0.94746700  0.60321400  1
  O  O46  1  0.28628900  0.28386000  0.27042100  1
  O  O47  1  0.30150400  0.61747800  0.93061500  1
  O  O48  1  0.97183400  0.37565800  0.36341200  1
  O  O49  1  0.96694900  0.72672900  0.02835200  1
  O  O50  1  0.97239900  0.03731900  0.70136400  1
  O  O51  1  0.53305100  0.72672900  0.52835200  1
  O  O52  1  0.52760100  0.03731900  0.20136400  1
  O  O53  1  0.52816600  0.37565800  0.86341200  1
  O  O54  1  0.02816600  0.62434200  0.63658800  1
  O  O55  1  0.02760100  0.96268100  0.29863600  1
  O  O56  1  0.03305100  0.27327100  0.97164800  1
  O  O57  1  0.46694900  0.27327100  0.47164800  1
  O  O58  1  0.47183400  0.62434200  0.13658800  1
  O  O59  1  0.47239900  0.96268100  0.79863600  1
