# generated using pymatgen
data_NaV6O11
_symmetry_space_group_name_H-M   'P 1'
_cell_length_a   5.87278835
_cell_length_b   5.87278835
_cell_length_c   13.52697000
_cell_angle_alpha   90.00000000
_cell_angle_beta   90.00000000
_cell_angle_gamma   120.00000391
_symmetry_Int_Tables_number   1
_chemical_formula_structural   NaV6O11
_chemical_formula_sum   'Na2 V12 O22'
_cell_volume   404.03579274
_cell_formula_units_Z   2
loop_
 _symmetry_equiv_pos_site_id
 _symmetry_equiv_pos_as_xyz
  1  'x, y, z'
loop_
 _atom_site_type_symbol
 _atom_site_label
 _atom_site_symmetry_multiplicity
 _atom_site_fract_x
 _atom_site_fract_y
 _atom_site_fract_z
 _atom_site_occupancy
  Na  Na0  1  0.33333300  0.66666700  0.25000000  1
  Na  Na1  1  0.66666700  0.33333300  0.75000000  1
  V  V2  1  0.66666700  0.33333300  0.25000000  1
  V  V3  1  0.33333300  0.66666700  0.75000000  1
  V  V4  1  0.00000000  0.00000000  0.35143800  1
  V  V5  1  0.00000000  0.00000000  0.85143800  1
  V  V6  1  0.00000000  0.00000000  0.64856200  1
  V  V7  1  0.00000000  0.00000000  0.14856200  1
  V  V8  1  0.50000000  0.00000000  0.50000000  1
  V  V9  1  0.50000000  0.50000000  0.00000000  1
  V  V10  1  0.00000000  0.50000000  0.00000000  1
  V  V11  1  0.00000000  0.50000000  0.50000000  1
  V  V12  1  0.50000000  0.50000000  0.50000000  1
  V  V13  1  0.50000000  0.00000000  0.00000000  1
  O  O14  1  0.82563100  0.17436900  0.92530400  1
  O  O15  1  0.17436900  0.34873800  0.42530400  1
  O  O16  1  0.33333300  0.66666700  0.91698300  1
  O  O17  1  0.66666700  0.33333300  0.41698300  1
  O  O18  1  0.66666700  0.33333300  0.08301700  1
  O  O19  1  0.33333300  0.66666700  0.58301700  1
  O  O20  1  0.85249800  0.70499500  0.25000000  1
  O  O21  1  0.14750200  0.85249800  0.75000000  1
  O  O22  1  0.70499500  0.85249800  0.75000000  1
  O  O23  1  0.29500500  0.14750200  0.25000000  1
  O  O24  1  0.85249800  0.14750200  0.25000000  1
  O  O25  1  0.65126200  0.82563100  0.42530400  1
  O  O26  1  0.17436900  0.34873800  0.07469600  1
  O  O27  1  0.82563100  0.17436900  0.57469600  1
  O  O28  1  0.34873800  0.17436900  0.57469600  1
  O  O29  1  0.65126200  0.82563100  0.07469600  1
  O  O30  1  0.17436900  0.82563100  0.07469600  1
  O  O31  1  0.82563100  0.65126200  0.92530400  1
  O  O32  1  0.17436900  0.82563100  0.42530400  1
  O  O33  1  0.82563100  0.65126200  0.57469600  1
  O  O34  1  0.34873800  0.17436900  0.92530400  1
  O  O35  1  0.14750200  0.29500500  0.75000000  1
