# generated using pymatgen
data_In2O3
_symmetry_space_group_name_H-M   'P 1'
_cell_length_a   11.50064564
_cell_length_b   11.70320072
_cell_length_c   11.09327835
_cell_angle_alpha   91.94359757
_cell_angle_beta   96.38028559
_cell_angle_gamma   90.51594758
_symmetry_Int_Tables_number   1
_chemical_formula_structural   In2O3
_chemical_formula_sum   'In40 O60'
_cell_volume   1482.86854465
_cell_formula_units_Z   20
loop_
 _symmetry_equiv_pos_site_id
 _symmetry_equiv_pos_as_xyz
  1  'x, y, z'
loop_
 _atom_site_type_symbol
 _atom_site_label
 _atom_site_symmetry_multiplicity
 _atom_site_fract_x
 _atom_site_fract_y
 _atom_site_fract_z
 _atom_site_occupancy
  In  In0  1  0.45340337  0.92239248  0.77319340  1
  In  In1  1  0.75752318  0.75778381  0.25860919  1
  In  In2  1  0.04819634  0.61351079  0.39555424  1
  In  In3  1  0.85931896  0.26336760  0.99400791  1
  In  In4  1  0.85261860  0.61955600  0.87807883  1
  In  In5  1  0.52388097  0.79094660  0.50703570  1
  In  In6  1  0.82796832  0.43483248  0.26013881  1
  In  In7  1  0.43270291  0.21543300  0.83744053  1
  In  In8  1  0.44794158  0.40753417  0.57783514  1
  In  In9  1  0.98611006  0.86149452  0.48186036  1
  In  In10  1  0.17820735  0.02236074  0.60566315  1
  In  In11  1  0.63617746  0.60147579  0.04141580  1
  In  In12  1  0.16346512  0.24742228  0.93291107  1
  In  In13  1  0.11281558  0.15379755  0.20585827  1
  In  In14  1  0.30148629  0.61189755  0.27049747  1
  In  In15  1  0.47153675  0.10989192  0.53449490  1
  In  In16  1  0.64253987  0.98640985  0.00216239  1
  In  In17  1  0.79468608  0.59992963  0.55426086  1
  In  In18  1  0.27144416  0.68379749  0.60796696  1
  In  In19  1  0.54878704  0.65455985  0.76756843  1
  In  In20  1  0.31059255  0.70302105  0.97772128  1
  In  In21  1  0.07379949  0.78218695  0.78814754  1
  In  In22  1  0.59492492  0.27893220  0.13205119  1
  In  In23  1  0.24455345  0.88505912  0.31510923  1
  In  In24  1  0.57433419  0.54477432  0.32386949  1
  In  In25  1  0.50939955  0.86663350  0.22904367  1
  In  In26  1  0.08819571  0.46920984  0.08434096  1
  In  In27  1  0.95697787  0.80594490  0.11836285  1
  In  In28  1  0.34534945  0.30350430  0.27093265  1
  In  In29  1  0.95253403  0.11602762  0.57143042  1
  In  In30  1  0.29040124  0.98400846  0.00629857  1
  In  In31  1  0.66535866  0.28661116  0.46719205  1
  In  In32  1  0.15967515  0.46015555  0.74907858  1
  In  In33  1  0.90128067  0.35181740  0.71621678  1
  In  In34  1  0.74279223  0.87386143  0.74574696  1
  In  In35  1  0.81050349  0.11323080  0.25371019  1
  In  In36  1  0.08510987  0.32758526  0.43859243  1
  In  In37  1  0.39151737  0.44599407  0.00327935  1
  In  In38  1  0.71917463  0.98037198  0.48923253  1
  In  In39  1  0.95693329  0.98149367  0.96557475  1
  O  O40  1  0.01301614  0.15520586  0.01420374  1
  O  O41  1  0.73245780  0.16537046  0.07934671  1
  O  O42  1  0.65336354  0.46127788  0.16364047  1
  O  O43  1  0.29048930  0.35807867  0.84652930  1
  O  O44  1  0.78597315  0.99844820  0.89070721  1
  O  O45  1  0.60378506  0.82390362  0.85723010  1
  O  O46  1  0.65449855  0.83402317  0.38868426  1
  O  O47  1  0.63300852  0.46116288  0.50559801  1
  O  O48  1  0.19592264  0.64210541  0.77716227  1
  O  O49  1  0.94810305  0.76581906  0.30450434  1
  O  O50  1  0.68314191  0.56116964  0.86803526  1
  O  O51  1  0.46277820  0.60809049  0.94496453  1
  O  O52  1  0.52306598  0.33740592  0.96081588  1
  O  O53  1  0.27785599  0.12299193  0.88784930  1
  O  O54  1  0.71793083  0.94010629  0.18219582  1
  O  O55  1  0.20324726  0.00319224  0.16721278  1
  O  O56  1  0.79221067  0.28021642  0.82316230  1
  O  O57  1  0.19078794  0.30695906  0.11895092  1
  O  O58  1  0.25041607  0.42577067  0.50295966  1
  O  O59  1  0.03505564  0.63263418  0.94308131  1
  O  O60  1  0.88416404  0.52840259  0.70990622  1
  O  O61  1  0.05882594  0.66100575  0.07606955  1
  O  O62  1  0.52899276  0.06604744  0.86633895  1
  O  O63  1  0.75975199  0.59395694  0.35763803  1
  O  O64  1  0.13873811  0.84414535  0.63141046  1
  O  O65  1  0.59549341  0.94904460  0.61891154  1
  O  O66  1  0.41474438  0.46762879  0.22293489  1
  O  O67  1  0.12348532  0.96659342  0.41689544  1
  O  O68  1  0.82713326  0.24292935  0.56521966  1
  O  O69  1  0.90891520  0.41602094  0.09808835  1
  O  O70  1  0.41579646  0.55000615  0.67641371  1
  O  O71  1  0.58050760  0.69763495  0.19181576  1
  O  O72  1  0.95794530  0.69142514  0.53710040  1
  O  O73  1  0.42417184  0.77683766  0.65552195  1
  O  O74  1  0.67123697  0.71087222  0.63130888  1
  O  O75  1  0.80376276  0.69004246  0.07747679  1
  O  O76  1  0.43876028  0.20715127  0.15901898  1
  O  O77  1  0.06398160  0.32146556  0.63486954  1
  O  O78  1  0.72892228  0.28128768  0.29513276  1
  O  O79  1  0.95576875  0.45426688  0.40899025  1
  O  O80  1  0.87319889  0.01965489  0.40380232  1
  O  O81  1  0.21216339  0.71917564  0.41212400  1
  O  O82  1  0.10967866  0.92877800  0.90219885  1
  O  O83  1  0.31874057  0.76981268  0.17353546  1
  O  O84  1  0.18320992  0.51873767  0.55925056  1
  O  O85  1  0.47276045  0.95726856  0.07651406  1
  O  O86  1  0.35547712  0.03270669  0.63876047  1
  O  O87  1  0.45084919  0.64198509  0.40844764  1
  O  O88  1  0.89377646  0.78068411  0.81333131  1
  O  O89  1  0.32307708  0.84842223  0.87991745  1
  O  O90  1  0.25311165  0.54837612  0.04460389  1
  O  O91  1  0.97057007  0.21420475  0.28987786  1
  O  O92  1  0.46469770  0.28785966  0.43344868  1
  O  O93  1  0.14202189  0.51831984  0.27059333  1
  O  O94  1  0.05193786  0.38771620  0.88623702  1
  O  O95  1  0.61405639  0.11375959  0.43238539  1
  O  O96  1  0.42224256  0.91676053  0.38599939  1
  O  O97  1  0.21469978  0.22526517  0.36458046  1
  O  O98  1  0.86737626  0.94560556  0.61902652  1
  O  O99  1  0.48319384  0.25165415  0.66770322  1
