# generated using pymatgen
data_SrTi4Bi4O15
_symmetry_space_group_name_H-M   'P 1'
_cell_length_a   20.78753291
_cell_length_b   20.78753291
_cell_length_c   5.55620900
_cell_angle_alpha   90.00000000
_cell_angle_beta   90.00000000
_cell_angle_gamma   164.79938861
_symmetry_Int_Tables_number   1
_chemical_formula_structural   SrTi4Bi4O15
_chemical_formula_sum   'Sr2 Ti8 Bi8 O30'
_cell_volume   629.52979963
_cell_formula_units_Z   2
loop_
 _symmetry_equiv_pos_site_id
 _symmetry_equiv_pos_as_xyz
  1  'x, y, z'
loop_
 _atom_site_type_symbol
 _atom_site_label
 _atom_site_symmetry_multiplicity
 _atom_site_fract_x
 _atom_site_fract_y
 _atom_site_fract_z
 _atom_site_occupancy
  Sr  Sr0  1  0.75784500  0.75784500  0.76053100  1
  Sr  Sr1  1  0.24215500  0.24215500  0.26053100  1
  Ti  Ti2  1  0.20445200  0.30037900  0.76894400  1
  Ti  Ti3  1  0.30037900  0.20445200  0.76894400  1
  Ti  Ti4  1  0.79554800  0.69962100  0.26894400  1
  Ti  Ti5  1  0.69962100  0.79554800  0.26894400  1
  Ti  Ti6  1  0.09914700  0.40345100  0.77034600  1
  Ti  Ti7  1  0.40345100  0.09914700  0.77034600  1
  Ti  Ti8  1  0.90085300  0.59654900  0.27034600  1
  Ti  Ti9  1  0.59654900  0.90085300  0.27034600  1
  Bi  Bi10  1  0.85931000  0.65362000  0.71759400  1
  Bi  Bi11  1  0.65362000  0.85931000  0.71759400  1
  Bi  Bi12  1  0.14069000  0.34638000  0.21759400  1
  Bi  Bi13  1  0.34638000  0.14069000  0.21759400  1
  Bi  Bi14  1  0.93984100  0.50147000  0.73311900  1
  Bi  Bi15  1  0.50147100  0.93984100  0.73311900  1
  Bi  Bi16  1  0.06015900  0.49853000  0.23311900  1
  Bi  Bi17  1  0.49853000  0.06015900  0.23311900  1
  O  O18  1  0.11724800  0.50642400  0.78475100  1
  O  O19  1  0.50642400  0.11724800  0.78475100  1
  O  O20  1  0.88275200  0.49357600  0.28475100  1
  O  O21  1  0.49357600  0.88275200  0.28475100  1
  O  O22  1  0.51537700  0.40806700  0.09083200  1
  O  O23  1  0.40806700  0.51537700  0.09083200  1
  O  O24  1  0.48462300  0.59193300  0.59083200  1
  O  O25  1  0.59193300  0.48462300  0.59083200  1
  O  O26  1  0.75662100  0.25445700  0.99980300  1
  O  O27  1  0.25445700  0.75662100  0.99980300  1
  O  O28  1  0.24337900  0.74554300  0.49980300  1
  O  O29  1  0.74554300  0.24337900  0.49980300  1
  O  O30  1  0.07424900  0.98871300  0.52486500  1
  O  O31  1  0.98871300  0.07424900  0.52486500  1
  O  O32  1  0.92575100  0.01128700  0.02486500  1
  O  O33  1  0.01128700  0.92575100  0.02486500  1
  O  O34  1  0.09291200  0.28399700  0.81744900  1
  O  O35  1  0.28399700  0.09291200  0.81744900  1
  O  O36  1  0.90708800  0.71600300  0.31744900  1
  O  O37  1  0.71600300  0.90708800  0.31744900  1
  O  O38  1  0.30024600  0.30024600  0.80409300  1
  O  O39  1  0.69975400  0.69975400  0.30409300  1
  O  O40  1  0.11853100  0.82174400  0.56949000  1
  O  O41  1  0.82174400  0.11853100  0.56949000  1
  O  O42  1  0.88146900  0.17825600  0.06949000  1
  O  O43  1  0.17825600  0.88146900  0.06949000  1
  O  O44  1  0.65147400  0.37478500  0.02749400  1
  O  O45  1  0.37478500  0.65147400  0.02749400  1
  O  O46  1  0.34852600  0.62521500  0.52749400  1
  O  O47  1  0.62521500  0.34852600  0.52749400  1
