# generated using pymatgen
data_Bi2O3
_symmetry_space_group_name_H-M   'P 1'
_cell_length_a   5.83398686
_cell_length_b   5.83398686
_cell_length_c   5.83398686
_cell_angle_alpha   88.66446509
_cell_angle_beta   88.66446509
_cell_angle_gamma   88.66446926
_symmetry_Int_Tables_number   1
_chemical_formula_structural   Bi2O3
_chemical_formula_sum   'Bi4 O6'
_cell_volume   198.40274374
_cell_formula_units_Z   2
loop_
 _symmetry_equiv_pos_site_id
 _symmetry_equiv_pos_as_xyz
  1  'x, y, z'
loop_
 _atom_site_type_symbol
 _atom_site_label
 _atom_site_symmetry_multiplicity
 _atom_site_fract_x
 _atom_site_fract_y
 _atom_site_fract_z
 _atom_site_occupancy
  Bi  Bi0  1  0.03378600  0.52178500  0.52178500  1
  Bi  Bi1  1  0.52178500  0.52178500  0.03378600  1
  Bi  Bi2  1  0.52178500  0.03378600  0.52178500  1
  Bi  Bi3  1  0.99688800  0.99688800  0.99688800  1
  O  O4  1  0.65641900  0.26555200  0.26555200  1
  O  O5  1  0.26555200  0.26555200  0.65641900  1
  O  O6  1  0.26555200  0.65641900  0.26555200  1
  O  O7  1  0.15760300  0.76231500  0.76231500  1
  O  O8  1  0.76231500  0.76231500  0.15760300  1
  O  O9  1  0.76231500  0.15760300  0.76231500  1
