# generated using pymatgen
data_TbFeAsO
_symmetry_space_group_name_H-M   'P 1'
_cell_length_a   3.97155700
_cell_length_b   3.97155700
_cell_length_c   9.09652400
_cell_angle_alpha   90.00000000
_cell_angle_beta   90.00000000
_cell_angle_gamma   90.00000000
_symmetry_Int_Tables_number   1
_chemical_formula_structural   TbFeAsO
_chemical_formula_sum   'Tb2 Fe2 As2 O2'
_cell_volume   143.48188367
_cell_formula_units_Z   2
loop_
 _symmetry_equiv_pos_site_id
 _symmetry_equiv_pos_as_xyz
  1  'x, y, z'
loop_
 _atom_site_type_symbol
 _atom_site_label
 _atom_site_symmetry_multiplicity
 _atom_site_fract_x
 _atom_site_fract_y
 _atom_site_fract_z
 _atom_site_occupancy
  Tb  Tb0  1  0.00000000  0.50000000  0.87880000  1
  Tb  Tb1  1  0.50000000  0.00000000  0.12120000  1
  Fe  Fe2  1  0.00000000  0.00000000  0.50000000  1
  Fe  Fe3  1  0.50000000  0.50000000  0.50000000  1
  As  As4  1  0.00000000  0.50000000  0.31451800  1
  As  As5  1  0.50000000  0.00000000  0.68548200  1
  O  O6  1  0.00000000  0.00000000  0.00000000  1
  O  O7  1  0.50000000  0.50000000  0.00000000  1
