# generated using pymatgen
data_Al2O3
_symmetry_space_group_name_H-M   'P 1'
_cell_length_a   10.42288369
_cell_length_b   10.24025572
_cell_length_c   10.52342834
_cell_angle_alpha   86.84111503
_cell_angle_beta   87.61405711
_cell_angle_gamma   90.11147938
_symmetry_Int_Tables_number   1
_chemical_formula_structural   Al2O3
_chemical_formula_sum   'Al40 O60'
_cell_volume   1120.50802268
_cell_formula_units_Z   20
loop_
 _symmetry_equiv_pos_site_id
 _symmetry_equiv_pos_as_xyz
  1  'x, y, z'
loop_
 _atom_site_type_symbol
 _atom_site_label
 _atom_site_symmetry_multiplicity
 _atom_site_fract_x
 _atom_site_fract_y
 _atom_site_fract_z
 _atom_site_occupancy
  Al  Al0  1  0.94054839  0.11854002  0.59535235  1
  Al  Al1  1  0.73964598  0.69282627  0.42430658  1
  Al  Al2  1  0.38583738  0.28845396  0.46833370  1
  Al  Al3  1  0.13646078  0.45948025  0.82085968  1
  Al  Al4  1  0.59098340  0.64658134  0.74346205  1
  Al  Al5  1  0.06935845  0.34147443  0.05718483  1
  Al  Al6  1  0.41885587  0.97663075  0.82789416  1
  Al  Al7  1  0.15398351  0.75658730  0.26452316  1
  Al  Al8  1  0.03600405  0.85606596  0.73909699  1
  Al  Al9  1  0.03735451  0.95600021  0.14043153  1
  Al  Al10  1  0.86944339  0.33056499  0.78097425  1
  Al  Al11  1  0.18002551  0.47178146  0.33892652  1
  Al  Al12  1  0.05901215  0.65082536  0.06682338  1
  Al  Al13  1  0.35805217  0.57660081  0.72390374  1
  Al  Al14  1  0.99076405  0.18637223  0.31316472  1
  Al  Al15  1  0.59129208  0.36673758  0.67569915  1
  Al  Al16  1  0.21870017  0.73968647  0.55537223  1
  Al  Al17  1  0.74748606  0.08562900  0.13477888  1
  Al  Al18  1  0.67610600  0.45660850  0.95662540  1
  Al  Al19  1  0.37936987  0.38549696  0.99510012  1
  Al  Al20  1  0.41922594  0.66382107  0.33327230  1
  Al  Al21  1  0.97533096  0.89006706  0.45275454  1
  Al  Al22  1  0.25326744  0.19405254  0.22595871  1
  Al  Al23  1  0.50356827  0.82340341  0.54277020  1
  Al  Al24  1  0.76224164  0.66685799  0.12685874  1
  Al  Al25  1  0.99413969  0.59642820  0.60720606  1
  Al  Al26  1  0.76448480  0.90441148  0.65098992  1
  Al  Al27  1  0.25996528  0.03880926  0.63845960  1
  Al  Al28  1  0.85522386  0.02572018  0.89726385  1
  Al  Al29  1  0.52241259  0.09145049  0.59268769  1
  Al  Al30  1  0.72015614  0.01241753  0.41485939  1
  Al  Al31  1  0.50516247  0.16999146  0.18902574  1
  Al  Al32  1  0.11074728  0.12916790  0.82222587  1
  Al  Al33  1  0.45120694  0.92137249  0.13755025  1
  Al  Al34  1  0.58200462  0.18824986  0.90792477  1
  Al  Al35  1  0.82805255  0.41231229  0.50053000  1
  Al  Al36  1  0.10883186  0.33218358  0.55214898  1
  Al  Al37  1  0.49385138  0.69690281  0.00409003  1
  Al  Al38  1  0.81480763  0.72230215  0.88112425  1
  Al  Al39  1  0.77337435  0.36652901  0.21106029  1
  O  O40  1  0.09071607  0.27511461  0.90225543  1
  O  O41  1  0.71428077  0.10348946  0.96330353  1
  O  O42  1  0.23875161  0.33277628  0.10295459  1
  O  O43  1  0.83313869  0.58645418  0.53235221  1
  O  O44  1  0.66149170  0.73956178  0.01399446  1
  O  O45  1  0.95199057  0.70294674  0.75870017  1
  O  O46  1  0.73046957  0.50077952  0.11122125  1
  O  O47  1  0.14853020  0.28990175  0.34573344  1
  O  O48  1  0.27396630  0.76290873  0.37898807  1
  O  O49  1  0.73248502  0.06784715  0.57907403  1
  O  O50  1  0.27279085  0.36619539  0.56653739  1
  O  O51  1  0.43131574  0.93543736  0.66366861  1
  O  O52  1  0.71700476  0.59039196  0.83393367  1
  O  O53  1  0.11394315  0.15655943  0.64682511  1
  O  O54  1  0.00843855  0.06208959  0.44157207  1
  O  O55  1  0.03088568  0.97233138  0.86245840  1
  O  O56  1  0.46127444  0.22774795  0.02547155  1
  O  O57  1  0.18359772  0.60370969  0.70028271  1
  O  O58  1  0.02976917  0.86822286  0.29308963  1
  O  O59  1  0.58962522  0.35016591  0.84581761  1
  O  O60  1  0.35661908  0.12046037  0.52471945  1
  O  O61  1  0.00915666  0.42541907  0.70797036  1
  O  O62  1  0.37920491  0.70463454  0.58793811  1
  O  O63  1  0.94427494  0.31739882  0.18519506  1
  O  O64  1  0.07333354  0.49494197  0.47634610  1
  O  O65  1  0.44480465  0.89158977  0.97239947  1
  O  O66  1  0.13495295  0.81036847  0.09234450  1
  O  O67  1  0.93525825  0.93803661  0.62889707  1
  O  O68  1  0.35234755  0.05047441  0.18919965  1
  O  O69  1  0.09822024  0.11231793  0.18510877  1
  O  O70  1  0.75946218  0.36490284  0.65515490  1
  O  O71  1  0.89171547  0.00166054  0.06862676  1
  O  O72  1  0.53548729  0.27058000  0.55546408  1
  O  O73  1  0.11446772  0.59293239  0.22318945  1
  O  O74  1  0.51826235  0.51995360  0.66372029  1
  O  O75  1  0.94318630  0.27892493  0.50642942  1
  O  O76  1  0.90437244  0.70006058  0.02289548  1
  O  O77  1  0.08360816  0.51000677  0.97838481  1
  O  O78  1  0.49591558  0.51124544  0.02070368  1
  O  O79  1  0.18349258  0.88280319  0.64786874  1
  O  O80  1  0.79934920  0.85837119  0.46146730  1
  O  O81  1  0.56324774  0.71024783  0.41456710  1
  O  O82  1  0.78310457  0.88902715  0.82209590  1
  O  O83  1  0.66647002  0.24363497  0.16601600  1
  O  O84  1  0.30743504  0.44238399  0.84567320  1
  O  O85  1  0.53266977  0.10497259  0.77659516  1
  O  O86  1  0.40598540  0.25250146  0.30113738  1
  O  O87  1  0.55676287  0.97732776  0.45631898  1
  O  O88  1  0.81837278  0.09498301  0.29513582  1
  O  O89  1  0.74555993  0.40398007  0.36654753  1
  O  O90  1  0.34494915  0.51055033  0.34212989  1
  O  O91  1  0.80335085  0.69912919  0.27387891  1
  O  O92  1  0.43772637  0.74426196  0.17281521  1
  O  O93  1  0.89662387  0.15741974  0.76755456  1
  O  O94  1  0.27136394  0.06455384  0.80963302  1
  O  O95  1  0.64085924  0.78213948  0.64331309  1
  O  O96  1  0.05146661  0.74232164  0.51507103  1
  O  O97  1  0.82381497  0.36781684  0.93185552  1
  O  O98  1  0.59271688  0.00779094  0.18356650  1
  O  O99  1  0.44851372  0.68332241  0.83471124  1
