# generated using pymatgen
data_CrO2
_symmetry_space_group_name_H-M   'P 1'
_cell_length_a   5.22345000
_cell_length_b   5.75864400
_cell_length_c   10.91421300
_cell_angle_alpha   90.00000000
_cell_angle_beta   90.00000000
_cell_angle_gamma   90.00000000
_symmetry_Int_Tables_number   1
_chemical_formula_structural   CrO2
_chemical_formula_sum   'Cr8 O16'
_cell_volume   328.29940700
_cell_formula_units_Z   8
loop_
 _symmetry_equiv_pos_site_id
 _symmetry_equiv_pos_as_xyz
  1  'x, y, z'
loop_
 _atom_site_type_symbol
 _atom_site_label
 _atom_site_symmetry_multiplicity
 _atom_site_fract_x
 _atom_site_fract_y
 _atom_site_fract_z
 _atom_site_occupancy
  Cr  Cr0  1  0.49223100  0.50000000  0.24083400  1
  Cr  Cr1  1  0.49223100  0.50000000  0.75916600  1
  Cr  Cr2  1  0.50776900  0.00000000  0.25916600  1
  Cr  Cr3  1  0.50776900  0.00000000  0.74083400  1
  Cr  Cr4  1  0.00000000  0.25000000  0.25000000  1
  Cr  Cr5  1  0.00000000  0.75000000  0.75000000  1
  Cr  Cr6  1  0.00000000  0.75000000  0.25000000  1
  Cr  Cr7  1  0.00000000  0.25000000  0.75000000  1
  O  O8  1  0.83673800  0.50000000  0.16037000  1
  O  O9  1  0.83673800  0.50000000  0.83963000  1
  O  O10  1  0.16326200  0.00000000  0.33963000  1
  O  O11  1  0.16326200  0.00000000  0.66037000  1
  O  O12  1  0.16575000  0.50000000  0.33597900  1
  O  O13  1  0.16575000  0.50000000  0.66402100  1
  O  O14  1  0.83425000  0.00000000  0.16402100  1
  O  O15  1  0.83425000  0.00000000  0.83597900  1
  O  O16  1  0.66455200  0.25169400  0.33804700  1
  O  O17  1  0.66455200  0.74830600  0.66195300  1
  O  O18  1  0.33544800  0.75169400  0.16195300  1
  O  O19  1  0.33544800  0.24830600  0.83804700  1
  O  O20  1  0.33544800  0.24830600  0.16195300  1
  O  O21  1  0.33544800  0.75169400  0.83804700  1
  O  O22  1  0.66455200  0.74830600  0.33804700  1
  O  O23  1  0.66455200  0.25169400  0.66195300  1
