# generated using pymatgen
data_CaCr2Cu3(SbO6)2
_symmetry_space_group_name_H-M   'P 1'
_cell_length_a   7.56404200
_cell_length_b   7.56404200
_cell_length_c   7.56404200
_cell_angle_alpha   90.00000000
_cell_angle_beta   90.00000000
_cell_angle_gamma   90.00000000
_symmetry_Int_Tables_number   1
_chemical_formula_structural   CaCr2Cu3(SbO6)2
_chemical_formula_sum   'Ca2 Cr4 Cu6 Sb4 O24'
_cell_volume   432.77463116
_cell_formula_units_Z   2
loop_
 _symmetry_equiv_pos_site_id
 _symmetry_equiv_pos_as_xyz
  1  'x, y, z'
loop_
 _atom_site_type_symbol
 _atom_site_label
 _atom_site_symmetry_multiplicity
 _atom_site_fract_x
 _atom_site_fract_y
 _atom_site_fract_z
 _atom_site_occupancy
  Ca  Ca0  1  0.00000000  0.00000000  0.00000000  1
  Ca  Ca1  1  0.50000000  0.50000000  0.50000000  1
  Cr  Cr2  1  0.25000000  0.75000000  0.75000000  1
  Cr  Cr3  1  0.25000000  0.25000000  0.25000000  1
  Cr  Cr4  1  0.75000000  0.75000000  0.25000000  1
  Cr  Cr5  1  0.75000000  0.25000000  0.75000000  1
  Cu  Cu6  1  0.00000000  0.00000000  0.50000000  1
  Cu  Cu7  1  0.00000000  0.50000000  0.50000000  1
  Cu  Cu8  1  0.50000000  0.50000000  0.00000000  1
  Cu  Cu9  1  0.00000000  0.50000000  0.00000000  1
  Cu  Cu10  1  0.50000000  0.00000000  0.00000000  1
  Cu  Cu11  1  0.50000000  0.00000000  0.50000000  1
  Sb  Sb12  1  0.75000000  0.25000000  0.25000000  1
  Sb  Sb13  1  0.75000000  0.75000000  0.75000000  1
  Sb  Sb14  1  0.25000000  0.75000000  0.25000000  1
  Sb  Sb15  1  0.25000000  0.25000000  0.75000000  1
  O  O16  1  0.49924300  0.67490200  0.19607900  1
  O  O17  1  0.49924300  0.32509800  0.80392100  1
  O  O18  1  0.50075700  0.67490200  0.80392100  1
  O  O19  1  0.32509800  0.80392100  0.49924300  1
  O  O20  1  0.80392100  0.50075700  0.67490200  1
  O  O21  1  0.80392100  0.49924300  0.32509800  1
  O  O22  1  0.67490200  0.19607900  0.49924300  1
  O  O23  1  0.19607900  0.49924300  0.67490200  1
  O  O24  1  0.67490200  0.80392100  0.50075700  1
  O  O25  1  0.32509800  0.19607900  0.50075700  1
  O  O26  1  0.19607900  0.50075700  0.32509800  1
  O  O27  1  0.50075700  0.32509800  0.19607900  1
  O  O28  1  0.00075700  0.82509800  0.30392100  1
  O  O29  1  0.00075700  0.17490200  0.69607900  1
  O  O30  1  0.99924300  0.82509800  0.69607900  1
  O  O31  1  0.17490200  0.69607900  0.00075700  1
  O  O32  1  0.99924300  0.17490200  0.30392100  1
  O  O33  1  0.30392100  0.99924300  0.17490200  1
  O  O34  1  0.17490200  0.30392100  0.99924300  1
  O  O35  1  0.82509800  0.69607900  0.99924300  1
  O  O36  1  0.30392100  0.00075700  0.82509800  1
  O  O37  1  0.82509800  0.30392100  0.00075700  1
  O  O38  1  0.69607900  0.00075700  0.17490200  1
  O  O39  1  0.69607900  0.99924300  0.82509800  1
