# generated using pymatgen
data_Fe3O4
_symmetry_space_group_name_H-M   'P 1'
_cell_length_a   6.04656255
_cell_length_b   10.49934468
_cell_length_c   6.03521650
_cell_angle_alpha   73.56067705
_cell_angle_beta   119.77440423
_cell_angle_gamma   89.78260488
_symmetry_Int_Tables_number   1
_chemical_formula_structural   Fe3O4
_chemical_formula_sum   'Fe12 O16'
_cell_volume   314.14005150
_cell_formula_units_Z   4
loop_
 _symmetry_equiv_pos_site_id
 _symmetry_equiv_pos_as_xyz
  1  'x, y, z'
loop_
 _atom_site_type_symbol
 _atom_site_label
 _atom_site_symmetry_multiplicity
 _atom_site_fract_x
 _atom_site_fract_y
 _atom_site_fract_z
 _atom_site_occupancy
  Fe  Fe0  1  0.50001700  0.00000400  0.50001000  1
  Fe  Fe1  1  0.99999800  0.00000500  0.49999900  1
  Fe  Fe2  1  0.00000400  0.50000300  0.00000600  1
  Fe  Fe3  1  0.25361700  0.25081900  0.50403900  1
  Fe  Fe4  1  0.74638100  0.74917900  0.49596200  1
  Fe  Fe5  1  0.93554400  0.19038800  0.87591300  1
  Fe  Fe6  1  0.43305000  0.69120800  0.87201400  1
  Fe  Fe7  1  0.06445400  0.80961100  0.12408600  1
  Fe  Fe8  1  0.56694600  0.30879400  0.12798300  1
  Fe  Fe9  1  0.99999600  0.50000000  0.49999300  1
  Fe  Fe10  1  0.50001300  0.49999400  0.50000800  1
  Fe  Fe11  1  0.49999900  0.99999800  0.00000100  1
  O  O12  1  0.87660100  0.38386200  0.75469500  1
  O  O13  1  0.35849000  0.88304500  0.74062700  1
  O  O14  1  0.12339900  0.61613800  0.24530300  1
  O  O15  1  0.64150800  0.11695600  0.25936900  1
  O  O16  1  0.89282400  0.37568300  0.24592100  1
  O  O17  1  0.39238600  0.87057900  0.26914700  1
  O  O18  1  0.63090000  0.63193800  0.26000000  1
  O  O19  1  0.12218700  0.12317800  0.26680400  1
  O  O20  1  0.36909700  0.36806200  0.73999700  1
  O  O21  1  0.87781000  0.87682100  0.73319300  1
  O  O22  1  0.64651700  0.62604500  0.75509400  1
  O  O23  1  0.11975400  0.12618900  0.72806200  1
  O  O24  1  0.10717400  0.62431700  0.75407800  1
  O  O25  1  0.60761100  0.12942000  0.73085200  1
  O  O26  1  0.35348000  0.37395400  0.24490600  1
  O  O27  1  0.88024300  0.87381000  0.27193800  1
