# generated using pymatgen
data_Nb2Pb
_symmetry_space_group_name_H-M   'P 1'
_cell_length_a   5.65752800
_cell_length_b   5.70047600
_cell_length_c   12.99545127
_cell_angle_alpha   90.00000000
_cell_angle_beta   102.57241695
_cell_angle_gamma   90.00000000
_symmetry_Int_Tables_number   1
_chemical_formula_structural   Nb2Pb
_chemical_formula_sum   'Nb4 Pb2'
_cell_volume   409.06154769
_cell_formula_units_Z   2
loop_
 _symmetry_equiv_pos_site_id
 _symmetry_equiv_pos_as_xyz
  1  'x, y, z'
loop_
 _atom_site_type_symbol
 _atom_site_label
 _atom_site_symmetry_multiplicity
 _atom_site_fract_x
 _atom_site_fract_y
 _atom_site_fract_z
 _atom_site_occupancy
  Nb  Nb0  1  0.83641600  0.23194900  0.16996700  1.0
  Nb  Nb1  1  0.66644900  0.23194900  0.83003300  1.0
  Nb  Nb2  1  0.33355100  0.73194900  0.16996700  1.0
  Nb  Nb3  1  0.16358400  0.73194900  0.83003300  1.0
  Pb  Pb4  1  0.75441000  0.75448300  0.00000000  1.0
  Pb  Pb5  1  0.24559000  0.25448300  1.00000000  1.0
