# generated using pymatgen
data_Ru
_symmetry_space_group_name_H-M   'P 1'
_cell_length_a   5.59237600
_cell_length_b   5.59323700
_cell_length_c   10.77139716
_cell_angle_alpha   90.00000000
_cell_angle_beta   105.04596149
_cell_angle_gamma   90.00000000
_symmetry_Int_Tables_number   1
_chemical_formula_structural   Ru
_chemical_formula_sum   Ru4
_cell_volume   325.37329426
_cell_formula_units_Z   4
loop_
 _symmetry_equiv_pos_site_id
 _symmetry_equiv_pos_as_xyz
  1  'x, y, z'
loop_
 _atom_site_type_symbol
 _atom_site_label
 _atom_site_symmetry_multiplicity
 _atom_site_fract_x
 _atom_site_fract_y
 _atom_site_fract_z
 _atom_site_occupancy
  Ru  Ru0  1  0.90236700  0.50000000  0.80473400  1.0
  Ru  Ru1  1  0.40236700  1.00000000  0.80473400  1.0
  Ru  Ru2  1  0.59763300  1.00000000  0.19526600  1.0
  Ru  Ru3  1  0.09763300  0.50000000  0.19526600  1.0
