# generated using pymatgen
data_Nd2MnNi
_symmetry_space_group_name_H-M   'P 1'
_cell_length_a   5.44420700
_cell_length_b   5.59806800
_cell_length_c   7.75018561
_cell_angle_alpha   90.00000000
_cell_angle_beta   90.03689022
_cell_angle_gamma   90.00000000
_symmetry_Int_Tables_number   1
_chemical_formula_structural   Nd2MnNi
_chemical_formula_sum   'Nd4 Mn2 Ni2'
_cell_volume   236.20267554
_cell_formula_units_Z   2
loop_
 _symmetry_equiv_pos_site_id
 _symmetry_equiv_pos_as_xyz
  1  'x, y, z'
loop_
 _atom_site_type_symbol
 _atom_site_label
 _atom_site_symmetry_multiplicity
 _atom_site_fract_x
 _atom_site_fract_y
 _atom_site_fract_z
 _atom_site_occupancy
  Nd  Nd0  1  0.51255400  0.44619900  0.74939700  1.0
  Nd  Nd1  1  0.98744600  0.94619900  0.75060300  1.0
  Nd  Nd2  1  0.48744600  0.55380100  0.25060300  1.0
  Nd  Nd3  1  0.01255400  0.05380100  0.24939700  1.0
  Mn  Mn4  1  0.50000000  0.00000000  0.00000000  1.0
  Mn  Mn5  1  0.00000000  0.50000000  0.50000000  1.0
  Ni  Ni6  1  0.50000000  0.00000000  0.50000000  1.0
  Ni  Ni7  1  0.00000000  0.50000000  0.00000000  1.0
