# generated using pymatgen
data_Mn
_symmetry_space_group_name_H-M   'P 1'
_cell_length_a   6.30059200
_cell_length_b   6.32753585
_cell_length_c   6.33480538
_cell_angle_alpha   91.09253903
_cell_angle_beta   91.06888045
_cell_angle_gamma   91.15151016
_symmetry_Int_Tables_number   1
_chemical_formula_structural   Mn
_chemical_formula_sum   Mn4
_cell_volume   252.40839662
_cell_formula_units_Z   4
loop_
 _symmetry_equiv_pos_site_id
 _symmetry_equiv_pos_as_xyz
  1  'x, y, z'
loop_
 _atom_site_type_symbol
 _atom_site_label
 _atom_site_symmetry_multiplicity
 _atom_site_fract_x
 _atom_site_fract_y
 _atom_site_fract_z
 _atom_site_occupancy
  Mn  Mn0  1  0.43868100  0.25164900  0.94771800  1.0
  Mn  Mn1  1  0.05712500  0.56024100  0.75241800  1.0
  Mn  Mn2  1  0.74901500  0.05477600  0.56506600  1.0
  Mn  Mn3  1  0.56054300  0.74952500  0.05011800  1.0
