# generated using pymatgen
data_Ta
_symmetry_space_group_name_H-M   'P 1'
_cell_length_a   3.78606600
_cell_length_b   3.78606600
_cell_length_c   13.46934785
_cell_angle_alpha   98.07931341
_cell_angle_beta   98.07931340
_cell_angle_gamma   90.00000002
_symmetry_Int_Tables_number   1
_chemical_formula_structural   Ta
_chemical_formula_sum   Ta2
_cell_volume   189.22149105
_cell_formula_units_Z   2
loop_
 _symmetry_equiv_pos_site_id
 _symmetry_equiv_pos_as_xyz
  1  'x, y, z'
loop_
 _atom_site_type_symbol
 _atom_site_label
 _atom_site_symmetry_multiplicity
 _atom_site_fract_x
 _atom_site_fract_y
 _atom_site_fract_z
 _atom_site_occupancy
  Ta  Ta0  1  0.92046200  0.92046200  0.84092400  1.0
  Ta  Ta1  1  0.07953800  0.07953800  0.15907600  1.0
