# generated using pymatgen
data_Nb
_symmetry_space_group_name_H-M   'P 1'
_cell_length_a   5.56653800
_cell_length_b   5.64486300
_cell_length_c   15.93417900
_cell_angle_alpha   90.00000000
_cell_angle_beta   90.00000000
_cell_angle_gamma   90.00000000
_symmetry_Int_Tables_number   1
_chemical_formula_structural   Nb
_chemical_formula_sum   Nb8
_cell_volume   500.68926018
_cell_formula_units_Z   8
loop_
 _symmetry_equiv_pos_site_id
 _symmetry_equiv_pos_as_xyz
  1  'x, y, z'
loop_
 _atom_site_type_symbol
 _atom_site_label
 _atom_site_symmetry_multiplicity
 _atom_site_fract_x
 _atom_site_fract_y
 _atom_site_fract_z
 _atom_site_occupancy
  Nb  Nb0  1  0.25160900  0.27127000  0.00231300  1.0
  Nb  Nb1  1  0.25826600  0.24178800  0.25270700  1.0
  Nb  Nb2  1  0.74839100  0.77127000  0.00231300  1.0
  Nb  Nb3  1  0.25826600  0.25821200  0.75270700  1.0
  Nb  Nb4  1  0.74173400  0.74178800  0.25270700  1.0
  Nb  Nb5  1  0.25160900  0.22873000  0.50231300  1.0
  Nb  Nb6  1  0.74839100  0.72873000  0.50231300  1.0
  Nb  Nb7  1  0.74173400  0.75821200  0.75270700  1.0
