# generated using pymatgen
data_TiNb
_symmetry_space_group_name_H-M   'P 1'
_cell_length_a   5.43768600
_cell_length_b   5.50739400
_cell_length_c   13.02227030
_cell_angle_alpha   90.00000000
_cell_angle_beta   78.22809505
_cell_angle_gamma   90.00000000
_symmetry_Int_Tables_number   1
_chemical_formula_structural   TiNb
_chemical_formula_sum   'Ti2 Nb2'
_cell_volume   381.78184547
_cell_formula_units_Z   2
loop_
 _symmetry_equiv_pos_site_id
 _symmetry_equiv_pos_as_xyz
  1  'x, y, z'
loop_
 _atom_site_type_symbol
 _atom_site_label
 _atom_site_symmetry_multiplicity
 _atom_site_fract_x
 _atom_site_fract_y
 _atom_site_fract_z
 _atom_site_occupancy
  Ti  Ti0  1  0.33702500  0.96416000  0.82284200  1.0
  Ti  Ti1  1  0.66297500  0.46416000  0.17715800  1.0
  Nb  Nb2  1  0.16567500  0.96073900  0.17589300  1.0
  Nb  Nb3  1  0.83432500  0.46073900  0.82410700  1.0
