# generated using pymatgen
data_CrW
_symmetry_space_group_name_H-M   'P 1'
_cell_length_a   5.63694678
_cell_length_b   5.63709217
_cell_length_c   5.63707520
_cell_angle_alpha   91.13884929
_cell_angle_beta   119.34394648
_cell_angle_gamma   119.34397249
_symmetry_Int_Tables_number   1
_chemical_formula_structural   CrW
_chemical_formula_sum   'Cr1 W1'
_cell_volume   127.88952100
_cell_formula_units_Z   1
loop_
 _symmetry_equiv_pos_site_id
 _symmetry_equiv_pos_as_xyz
  1  'x, y, z'
loop_
 _atom_site_type_symbol
 _atom_site_label
 _atom_site_symmetry_multiplicity
 _atom_site_fract_x
 _atom_site_fract_y
 _atom_site_fract_z
 _atom_site_occupancy
  Cr  Cr0  1  0.99999800  0.50000150  0.49999650  1.0
  W  W1  1  0.00000050  1.00000000  0.00000050  1.0
