# generated using pymatgen
data_MnRu
_symmetry_space_group_name_H-M   'P 1'
_cell_length_a   5.64660100
_cell_length_b   5.76584900
_cell_length_c   8.02863758
_cell_angle_alpha   89.99964814
_cell_angle_beta   89.94001319
_cell_angle_gamma   89.99955365
_symmetry_Int_Tables_number   1
_chemical_formula_structural   MnRu
_chemical_formula_sum   'Mn2 Ru2'
_cell_volume   261.39181310
_cell_formula_units_Z   2
loop_
 _symmetry_equiv_pos_site_id
 _symmetry_equiv_pos_as_xyz
  1  'x, y, z'
loop_
 _atom_site_type_symbol
 _atom_site_label
 _atom_site_symmetry_multiplicity
 _atom_site_fract_x
 _atom_site_fract_y
 _atom_site_fract_z
 _atom_site_occupancy
  Mn  Mn0  1  0.50046000  0.99302100  0.49862500  1.0
  Mn  Mn1  1  0.00047000  0.50698900  0.99862200  1.0
  Ru  Ru2  1  0.50040500  0.99778600  0.99996000  1.0
  Ru  Ru3  1  0.00039800  0.50221200  0.49995900  1.0
