# generated using pymatgen
data_Mn3Fe2
_symmetry_space_group_name_H-M   'P 1'
_cell_length_a   6.00053576
_cell_length_b   6.00053576
_cell_length_c   6.00053567
_cell_angle_alpha   60.67940292
_cell_angle_beta   60.67940292
_cell_angle_gamma   60.67939772
_symmetry_Int_Tables_number   1
_chemical_formula_structural   Mn3Fe2
_chemical_formula_sum   'Mn3 Fe2'
_cell_volume   155.11899829
_cell_formula_units_Z   1
loop_
 _symmetry_equiv_pos_site_id
 _symmetry_equiv_pos_as_xyz
  1  'x, y, z'
loop_
 _atom_site_type_symbol
 _atom_site_label
 _atom_site_symmetry_multiplicity
 _atom_site_fract_x
 _atom_site_fract_y
 _atom_site_fract_z
 _atom_site_occupancy
  Mn  Mn0  1  0.49392300  0.49392300  0.01092000  1.0
  Mn  Mn1  1  0.49392300  0.01092000  0.49392300  1.0
  Mn  Mn2  1  0.01092000  0.49392300  0.49392300  1.0
  Fe  Fe3  1  0.49735600  0.49735600  0.49735600  1.0
  Fe  Fe4  1  0.87880300  0.87880300  0.87880300  1.0
