# generated using pymatgen
data_Mo
_symmetry_space_group_name_H-M   'P 1'
_cell_length_a   5.72035100
_cell_length_b   5.72394764
_cell_length_c   10.56720549
_cell_angle_alpha   93.48537107
_cell_angle_beta   94.06181236
_cell_angle_gamma   90.15754501
_symmetry_Int_Tables_number   1
_chemical_formula_structural   Mo
_chemical_formula_sum   Mo4
_cell_volume   344.48579241
_cell_formula_units_Z   4
loop_
 _symmetry_equiv_pos_site_id
 _symmetry_equiv_pos_as_xyz
  1  'x, y, z'
loop_
 _atom_site_type_symbol
 _atom_site_label
 _atom_site_symmetry_multiplicity
 _atom_site_fract_x
 _atom_site_fract_y
 _atom_site_fract_z
 _atom_site_occupancy
  Mo  Mo0  1  0.44232800  0.44139200  0.60526100  1.0
  Mo  Mo1  1  0.55767200  0.55860800  0.39473900  1.0
  Mo  Mo2  1  0.00000000  0.00000000  0.00000000  1.0
  Mo  Mo3  1  0.50000000  0.50000000  0.00000000  1.0
