# generated using pymatgen
data_Co
_symmetry_space_group_name_H-M   'P 1'
_cell_length_a   6.42075836
_cell_length_b   6.42075836
_cell_length_c   10.32560900
_cell_angle_alpha   90.00000000
_cell_angle_beta   90.00000000
_cell_angle_gamma   119.60959218
_symmetry_Int_Tables_number   1
_chemical_formula_structural   Co
_chemical_formula_sum   Co8
_cell_volume   370.09572580
_cell_formula_units_Z   8
loop_
 _symmetry_equiv_pos_site_id
 _symmetry_equiv_pos_as_xyz
  1  'x, y, z'
loop_
 _atom_site_type_symbol
 _atom_site_label
 _atom_site_symmetry_multiplicity
 _atom_site_fract_x
 _atom_site_fract_y
 _atom_site_fract_z
 _atom_site_occupancy
  Co  Co0  1  0.17004000  0.82996000  0.68839300  1.0
  Co  Co1  1  0.66457600  0.83194500  0.68956000  1.0
  Co  Co2  1  0.16805500  0.33542400  0.68956000  1.0
  Co  Co3  1  0.82996000  0.17004000  0.18839300  1.0
  Co  Co4  1  0.33542400  0.16805500  0.18956000  1.0
  Co  Co5  1  0.83194500  0.66457600  0.18956000  1.0
  Co  Co6  1  0.99776000  0.00224000  0.44611900  1.0
  Co  Co7  1  0.00224000  0.99776000  0.94611900  1.0
