# generated using pymatgen
data_Co
_symmetry_space_group_name_H-M   'P 1'
_cell_length_a   6.11421463
_cell_length_b   6.11421463
_cell_length_c   15.12143045
_cell_angle_alpha   89.74757563
_cell_angle_beta   89.74757563
_cell_angle_gamma   60.39447215
_symmetry_Int_Tables_number   1
_chemical_formula_structural   Co
_chemical_formula_sum   Co14
_cell_volume   491.48678177
_cell_formula_units_Z   14
loop_
 _symmetry_equiv_pos_site_id
 _symmetry_equiv_pos_as_xyz
  1  'x, y, z'
loop_
 _atom_site_type_symbol
 _atom_site_label
 _atom_site_symmetry_multiplicity
 _atom_site_fract_x
 _atom_site_fract_y
 _atom_site_fract_z
 _atom_site_occupancy
  Co  Co0  1  0.50304800  0.81914400  0.45828600  1.0
  Co  Co1  1  0.99432000  0.33404700  0.33816500  1.0
  Co  Co2  1  0.49457600  0.84542000  0.19880600  1.0
  Co  Co3  1  0.81450500  0.18549500  0.50000000  1.0
  Co  Co4  1  0.50403200  0.33446400  0.33823600  1.0
  Co  Co5  1  0.15458000  0.50542400  0.80119400  1.0
  Co  Co6  1  0.66553600  0.49596800  0.66176400  1.0
  Co  Co7  1  0.66595300  0.00568000  0.66183500  1.0
  Co  Co8  1  0.18085600  0.49695200  0.54171400  1.0
  Co  Co9  1  0.83383100  0.66584400  0.00060900  1.0
  Co  Co10  1  0.83638000  0.15843100  0.12832100  1.0
  Co  Co11  1  0.33415600  0.16616900  0.99939100  1.0
  Co  Co12  1  0.33454400  0.66545600  0.00000000  1.0
  Co  Co13  1  0.84156900  0.16362000  0.87167900  1.0
