# generated using pymatgen
data_Ru
_symmetry_space_group_name_H-M   'P 1'
_cell_length_a   5.58376100
_cell_length_b   5.58404200
_cell_length_c   14.73208589
_cell_angle_alpha   79.07524224
_cell_angle_beta   90.00000000
_cell_angle_gamma   90.00000000
_symmetry_Int_Tables_number   1
_chemical_formula_structural   Ru
_chemical_formula_sum   Ru6
_cell_volume   451.02102498
_cell_formula_units_Z   6
loop_
 _symmetry_equiv_pos_site_id
 _symmetry_equiv_pos_as_xyz
  1  'x, y, z'
loop_
 _atom_site_type_symbol
 _atom_site_label
 _atom_site_symmetry_multiplicity
 _atom_site_fract_x
 _atom_site_fract_y
 _atom_site_fract_z
 _atom_site_occupancy
  Ru  Ru0  1  0.00000000  0.85958400  0.28083200  1.0
  Ru  Ru1  1  0.50000000  0.64041600  0.71916800  1.0
  Ru  Ru2  1  0.50000000  0.50000000  0.00000000  1.0
  Ru  Ru3  1  0.00000000  0.14041600  0.71916800  1.0
  Ru  Ru4  1  0.50000000  0.35958400  0.28083200  1.0
  Ru  Ru5  1  0.00000000  0.00000000  0.00000000  1.0
