# generated using pymatgen
data_Ta2Pb
_symmetry_space_group_name_H-M   'P 1'
_cell_length_a   5.27359900
_cell_length_b   6.13279900
_cell_length_c   15.90032200
_cell_angle_alpha   90.00000000
_cell_angle_beta   90.00000000
_cell_angle_gamma   90.00000000
_symmetry_Int_Tables_number   1
_chemical_formula_structural   Ta2Pb
_chemical_formula_sum   'Ta8 Pb4'
_cell_volume   514.24698461
_cell_formula_units_Z   4
loop_
 _symmetry_equiv_pos_site_id
 _symmetry_equiv_pos_as_xyz
  1  'x, y, z'
loop_
 _atom_site_type_symbol
 _atom_site_label
 _atom_site_symmetry_multiplicity
 _atom_site_fract_x
 _atom_site_fract_y
 _atom_site_fract_z
 _atom_site_occupancy
  Ta  Ta0  1  0.77067900  0.82502600  0.67126000  1.0
  Ta  Ta1  1  0.27067900  0.17497400  0.67126000  1.0
  Ta  Ta2  1  0.27067900  0.67497400  0.82874000  1.0
  Ta  Ta3  1  0.77067900  0.32502600  0.82874000  1.0
  Ta  Ta4  1  0.22932100  0.67497400  0.17126000  1.0
  Ta  Ta5  1  0.72932100  0.32502600  0.17126000  1.0
  Ta  Ta6  1  0.72932100  0.82502600  0.32874000  1.0
  Ta  Ta7  1  0.22932100  0.17497400  0.32874000  1.0
  Pb  Pb8  1  0.25000000  0.70504500  0.50000000  1.0
  Pb  Pb9  1  0.75000000  0.29495500  0.50000000  1.0
  Pb  Pb10  1  0.75000000  0.79495500  0.00000000  1.0
  Pb  Pb11  1  0.25000000  0.20504500  0.00000000  1.0
