# generated using pymatgen
data_Nb
_symmetry_space_group_name_H-M   'P 1'
_cell_length_a   3.97715700
_cell_length_b   12.80775000
_cell_length_c   12.80775000
_cell_angle_alpha   90.00000000
_cell_angle_beta   90.00000000
_cell_angle_gamma   90.00000000
_symmetry_Int_Tables_number   1
_chemical_formula_structural   Nb
_chemical_formula_sum   Nb10
_cell_volume   652.40670971
_cell_formula_units_Z   10
loop_
 _symmetry_equiv_pos_site_id
 _symmetry_equiv_pos_as_xyz
  1  'x, y, z'
loop_
 _atom_site_type_symbol
 _atom_site_label
 _atom_site_symmetry_multiplicity
 _atom_site_fract_x
 _atom_site_fract_y
 _atom_site_fract_z
 _atom_site_occupancy
  Nb  Nb0  1  1.00000000  0.71404300  0.42432800  1.0
  Nb  Nb1  1  1.00000000  0.42432800  0.28595700  1.0
  Nb  Nb2  1  0.00000000  0.00000000  0.50000000  1.0
  Nb  Nb3  1  1.00000000  0.57567200  0.71404300  1.0
  Nb  Nb4  1  0.00000000  0.78595700  0.92432800  1.0
  Nb  Nb5  1  0.00000000  0.21404300  0.07567200  1.0
  Nb  Nb6  1  1.00000000  0.92432800  0.21404300  1.0
  Nb  Nb7  1  0.00000000  0.28595700  0.57567200  1.0
  Nb  Nb8  1  0.00000000  0.07567200  0.78595700  1.0
  Nb  Nb9  1  0.00000000  0.50000000  0.00000000  1.0
