# generated using pymatgen
data_DyMnFe
_symmetry_space_group_name_H-M   'P 1'
_cell_length_a   5.79153400
_cell_length_b   7.34814700
_cell_length_c   8.61101700
_cell_angle_alpha   90.00000000
_cell_angle_beta   90.00000000
_cell_angle_gamma   90.00000000
_symmetry_Int_Tables_number   1
_chemical_formula_structural   DyMnFe
_chemical_formula_sum   'Dy4 Mn4 Fe4'
_cell_volume   366.45942236
_cell_formula_units_Z   4
loop_
 _symmetry_equiv_pos_site_id
 _symmetry_equiv_pos_as_xyz
  1  'x, y, z'
loop_
 _atom_site_type_symbol
 _atom_site_label
 _atom_site_symmetry_multiplicity
 _atom_site_fract_x
 _atom_site_fract_y
 _atom_site_fract_z
 _atom_site_occupancy
  Dy  Dy0  1  0.50000000  0.36602000  0.33078200  1.0
  Dy  Dy1  1  0.50000000  0.63398000  0.66921800  1.0
  Dy  Dy2  1  0.50000000  0.13398000  0.83078200  1.0
  Dy  Dy3  1  0.50000000  0.86602000  0.16921800  1.0
  Mn  Mn4  1  0.25077400  0.00000000  0.50000000  1.0
  Mn  Mn5  1  0.74922600  0.00000000  0.50000000  1.0
  Mn  Mn6  1  0.74922600  0.50000000  0.00000000  1.0
  Mn  Mn7  1  0.25077400  0.50000000  0.00000000  1.0
  Fe  Fe8  1  0.00000000  0.10712200  0.14615700  1.0
  Fe  Fe9  1  0.00000000  0.89287800  0.85384300  1.0
  Fe  Fe10  1  0.00000000  0.39287800  0.64615700  1.0
  Fe  Fe11  1  0.00000000  0.60712200  0.35384300  1.0
