# generated using pymatgen
data_Pr2MnNi
_symmetry_space_group_name_H-M   'P 1'
_cell_length_a   5.47519900
_cell_length_b   5.58823600
_cell_length_c   7.78174020
_cell_angle_alpha   90.00000000
_cell_angle_beta   89.98715184
_cell_angle_gamma   90.00000000
_symmetry_Int_Tables_number   1
_chemical_formula_structural   Pr2MnNi
_chemical_formula_sum   'Pr4 Mn2 Ni2'
_cell_volume   238.09559672
_cell_formula_units_Z   2
loop_
 _symmetry_equiv_pos_site_id
 _symmetry_equiv_pos_as_xyz
  1  'x, y, z'
loop_
 _atom_site_type_symbol
 _atom_site_label
 _atom_site_symmetry_multiplicity
 _atom_site_fract_x
 _atom_site_fract_y
 _atom_site_fract_z
 _atom_site_occupancy
  Pr  Pr0  1  0.98931000  0.45012900  0.25047100  1.0
  Pr  Pr1  1  0.01069000  0.54987100  0.74952900  1.0
  Pr  Pr2  1  0.51069000  0.95012900  0.24952900  1.0
  Pr  Pr3  1  0.48931000  0.04987100  0.75047100  1.0
  Mn  Mn4  1  0.00000000  0.00000000  0.00000000  1.0
  Mn  Mn5  1  0.50000000  0.50000000  0.50000000  1.0
  Ni  Ni6  1  0.00000000  0.00000000  0.50000000  1.0
  Ni  Ni7  1  0.50000000  0.50000000  0.00000000  1.0
