# generated using pymatgen
data_HoMn2
_symmetry_space_group_name_H-M   'P 1'
_cell_length_a   5.78387500
_cell_length_b   7.32371700
_cell_length_c   8.55310900
_cell_angle_alpha   90.00000000
_cell_angle_beta   90.00000000
_cell_angle_gamma   90.00000000
_symmetry_Int_Tables_number   1
_chemical_formula_structural   HoMn2
_chemical_formula_sum   'Ho4 Mn8'
_cell_volume   362.30510989
_cell_formula_units_Z   4
loop_
 _symmetry_equiv_pos_site_id
 _symmetry_equiv_pos_as_xyz
  1  'x, y, z'
loop_
 _atom_site_type_symbol
 _atom_site_label
 _atom_site_symmetry_multiplicity
 _atom_site_fract_x
 _atom_site_fract_y
 _atom_site_fract_z
 _atom_site_occupancy
  Ho  Ho0  1  0.00000000  0.13789600  0.17054900  1.0
  Ho  Ho1  1  0.00000000  0.86210400  0.82945100  1.0
  Ho  Ho2  1  0.00000000  0.63789600  0.32945100  1.0
  Ho  Ho3  1  0.00000000  0.36210400  0.67054900  1.0
  Mn  Mn4  1  0.25335700  0.00000000  0.50000000  1.0
  Mn  Mn5  1  0.74664300  0.50000000  0.00000000  1.0
  Mn  Mn6  1  0.74664300  0.00000000  0.50000000  1.0
  Mn  Mn7  1  0.25335700  0.50000000  0.00000000  1.0
  Mn  Mn8  1  0.50000000  0.41194900  0.34854800  1.0
  Mn  Mn9  1  0.50000000  0.58805100  0.65145200  1.0
  Mn  Mn10  1  0.50000000  0.91194900  0.15145200  1.0
  Mn  Mn11  1  0.50000000  0.08805100  0.84854800  1.0
