# generated using pymatgen
data_CrFeCo
_symmetry_space_group_name_H-M   'P 1'
_cell_length_a   6.02660728
_cell_length_b   6.02660728
_cell_length_c   6.02660728
_cell_angle_alpha   89.35882114
_cell_angle_beta   60.08077771
_cell_angle_gamma   119.34261930
_symmetry_Int_Tables_number   1
_chemical_formula_structural   CrFeCo
_chemical_formula_sum   'Cr2 Fe2 Co2'
_cell_volume   155.62404955
_cell_formula_units_Z   2
loop_
 _symmetry_equiv_pos_site_id
 _symmetry_equiv_pos_as_xyz
  1  'x, y, z'
loop_
 _atom_site_type_symbol
 _atom_site_label
 _atom_site_symmetry_multiplicity
 _atom_site_fract_x
 _atom_site_fract_y
 _atom_site_fract_z
 _atom_site_occupancy
  Cr  Cr0  1  0.00000000  0.50000000  0.50000000  1.0
  Cr  Cr1  1  0.50000000  1.00000000  0.50000000  1.0
  Fe  Fe2  1  0.25000000  0.12289800  0.12710200  1.0
  Fe  Fe3  1  0.75000000  0.87710200  0.87289800  1.0
  Co  Co4  1  0.00000000  0.50000000  0.00000000  1.0
  Co  Co5  1  0.50000000  0.50000000  0.50000000  1.0
