# generated using pymatgen
data_Pb
_symmetry_space_group_name_H-M   'P 1'
_cell_length_a   5.88932500
_cell_length_b   5.92742000
_cell_length_c   8.35430900
_cell_angle_alpha   90.00000000
_cell_angle_beta   90.00000000
_cell_angle_gamma   90.00000000
_symmetry_Int_Tables_number   1
_chemical_formula_structural   Pb
_chemical_formula_sum   Pb4
_cell_volume   291.63641905
_cell_formula_units_Z   4
loop_
 _symmetry_equiv_pos_site_id
 _symmetry_equiv_pos_as_xyz
  1  'x, y, z'
loop_
 _atom_site_type_symbol
 _atom_site_label
 _atom_site_symmetry_multiplicity
 _atom_site_fract_x
 _atom_site_fract_y
 _atom_site_fract_z
 _atom_site_occupancy
  Pb  Pb0  1  0.00692700  0.52386200  0.25000000  1.0
  Pb  Pb1  1  0.49307300  0.02386200  0.25000000  1.0
  Pb  Pb2  1  0.50692700  0.97613800  0.75000000  1.0
  Pb  Pb3  1  0.99307300  0.47613800  0.75000000  1.0
