# generated using pymatgen
data_Nb
_symmetry_space_group_name_H-M   'P 1'
_cell_length_a   6.25119400
_cell_length_b   6.33377690
_cell_length_c   12.96046860
_cell_angle_alpha   103.93637350
_cell_angle_beta   90.00000000
_cell_angle_gamma   119.56961933
_symmetry_Int_Tables_number   1
_chemical_formula_structural   Nb
_chemical_formula_sum   Nb8
_cell_volume   428.86496532
_cell_formula_units_Z   8
loop_
 _symmetry_equiv_pos_site_id
 _symmetry_equiv_pos_as_xyz
  1  'x, y, z'
loop_
 _atom_site_type_symbol
 _atom_site_label
 _atom_site_symmetry_multiplicity
 _atom_site_fract_x
 _atom_site_fract_y
 _atom_site_fract_z
 _atom_site_occupancy
  Nb  Nb0  1  0.24726100  0.63813600  0.25342600  1.0
  Nb  Nb1  1  0.39087500  0.63813600  0.75342600  1.0
  Nb  Nb2  1  0.60832900  0.36052400  0.25304100  1.0
  Nb  Nb3  1  0.75219500  0.36052400  0.75304100  1.0
  Nb  Nb4  1  0.87497900  0.99014700  0.24111700  1.0
  Nb  Nb5  1  0.11516800  0.99014700  0.74111700  1.0
  Nb  Nb6  1  0.47509400  0.47493500  0.99791100  1.0
  Nb  Nb7  1  0.99984100  0.47493500  0.49791100  1.0
