# generated using pymatgen
data_Ti
_symmetry_space_group_name_H-M   'P 1'
_cell_length_a   5.58124866
_cell_length_b   5.58742600
_cell_length_c   25.38388933
_cell_angle_alpha   83.68131166
_cell_angle_beta   89.81334195
_cell_angle_gamma   88.30376596
_symmetry_Int_Tables_number   1
_chemical_formula_structural   Ti
_chemical_formula_sum   Ti10
_cell_volume   786.43826889
_cell_formula_units_Z   10
loop_
 _symmetry_equiv_pos_site_id
 _symmetry_equiv_pos_as_xyz
  1  'x, y, z'
loop_
 _atom_site_type_symbol
 _atom_site_label
 _atom_site_symmetry_multiplicity
 _atom_site_fract_x
 _atom_site_fract_y
 _atom_site_fract_z
 _atom_site_occupancy
  Ti  Ti0  1  0.48147200  0.41997200  0.66706300  1.0
  Ti  Ti1  1  0.50054200  0.57084700  0.33152400  1.0
  Ti  Ti2  1  0.00054200  0.90237100  0.66847600  1.0
  Ti  Ti3  1  0.98147200  0.08703500  0.33293700  1.0
  Ti  Ti4  1  0.48761600  0.29955300  0.84348200  1.0
  Ti  Ti5  1  0.48298100  0.66516200  0.15675000  1.0
  Ti  Ti6  1  0.98298100  0.82191200  0.84325000  1.0
  Ti  Ti7  1  0.98761600  0.14303500  0.15651800  1.0
  Ti  Ti8  1  0.49445400  0.49973300  0.49896300  1.0
  Ti  Ti9  1  0.99445400  0.99869600  0.50103700  1.0
