# generated using pymatgen
data_Ni
_symmetry_space_group_name_H-M   'P 1'
_cell_length_a   4.00921400
_cell_length_b   4.00921400
_cell_length_c   13.29695970
_cell_angle_alpha   98.67078635
_cell_angle_beta   98.67078636
_cell_angle_gamma   89.99999998
_symmetry_Int_Tables_number   1
_chemical_formula_structural   Ni
_chemical_formula_sum   Ni4
_cell_volume   208.81850494
_cell_formula_units_Z   4
loop_
 _symmetry_equiv_pos_site_id
 _symmetry_equiv_pos_as_xyz
  1  'x, y, z'
loop_
 _atom_site_type_symbol
 _atom_site_label
 _atom_site_symmetry_multiplicity
 _atom_site_fract_x
 _atom_site_fract_y
 _atom_site_fract_z
 _atom_site_occupancy
  Ni  Ni0  1  0.59273000  0.09273000  0.18546000  1.0
  Ni  Ni1  1  0.40727000  0.90727000  0.81454000  1.0
  Ni  Ni2  1  0.09273000  0.59273000  0.18546000  1.0
  Ni  Ni3  1  0.90727000  0.40727000  0.81454000  1.0
