# generated using pymatgen
data_Cr
_symmetry_space_group_name_H-M   'P 1'
_cell_length_a   4.32016211
_cell_length_b   5.02259513
_cell_length_c   5.50280200
_cell_angle_alpha   89.99780036
_cell_angle_beta   90.00149212
_cell_angle_gamma   89.97445550
_symmetry_Int_Tables_number   1
_chemical_formula_structural   Cr
_chemical_formula_sum   Cr4
_cell_volume   119.40212545
_cell_formula_units_Z   4
loop_
 _symmetry_equiv_pos_site_id
 _symmetry_equiv_pos_as_xyz
  1  'x, y, z'
loop_
 _atom_site_type_symbol
 _atom_site_label
 _atom_site_symmetry_multiplicity
 _atom_site_fract_x
 _atom_site_fract_y
 _atom_site_fract_z
 _atom_site_occupancy
  Cr  Cr0  1  0.50000600  0.24998800  0.35509400  1.0
  Cr  Cr1  1  0.99996200  0.75001500  0.14493400  1.0
  Cr  Cr2  1  0.50002500  0.75000900  0.64478800  1.0
  Cr  Cr3  1  0.00000500  0.24998700  0.85517200  1.0
