# generated using pymatgen
data_Nb
_symmetry_space_group_name_H-M   'P 1'
_cell_length_a   3.91925800
_cell_length_b   3.91925800
_cell_length_c   13.83861243
_cell_angle_alpha   98.14078272
_cell_angle_beta   98.14078272
_cell_angle_gamma   89.99999998
_symmetry_Int_Tables_number   1
_chemical_formula_structural   Nb
_chemical_formula_sum   Nb2
_cell_volume   208.26305816
_cell_formula_units_Z   2
loop_
 _symmetry_equiv_pos_site_id
 _symmetry_equiv_pos_as_xyz
  1  'x, y, z'
loop_
 _atom_site_type_symbol
 _atom_site_label
 _atom_site_symmetry_multiplicity
 _atom_site_fract_x
 _atom_site_fract_y
 _atom_site_fract_z
 _atom_site_occupancy
  Nb  Nb0  1  0.92753000  0.92753000  0.85506000  1.0
  Nb  Nb1  1  0.07247000  0.07247000  0.14494000  1.0
