# generated using pymatgen
data_Dy2MnNi
_symmetry_space_group_name_H-M   'P 1'
_cell_length_a   5.26376100
_cell_length_b   5.58809500
_cell_length_c   7.55258094
_cell_angle_alpha   90.00000000
_cell_angle_beta   89.57586400
_cell_angle_gamma   90.00000000
_symmetry_Int_Tables_number   1
_chemical_formula_structural   Dy2MnNi
_chemical_formula_sum   'Dy4 Mn2 Ni2'
_cell_volume   222.14852365
_cell_formula_units_Z   2
loop_
 _symmetry_equiv_pos_site_id
 _symmetry_equiv_pos_as_xyz
  1  'x, y, z'
loop_
 _atom_site_type_symbol
 _atom_site_label
 _atom_site_symmetry_multiplicity
 _atom_site_fract_x
 _atom_site_fract_y
 _atom_site_fract_z
 _atom_site_occupancy
  Dy  Dy0  1  0.01871800  0.07230600  0.25064100  1.0
  Dy  Dy1  1  0.51871800  0.42769400  0.75064100  1.0
  Dy  Dy2  1  0.98128200  0.92769400  0.74935900  1.0
  Dy  Dy3  1  0.48128200  0.57230600  0.24935900  1.0
  Mn  Mn4  1  0.50000000  0.00000000  0.50000000  1.0
  Mn  Mn5  1  0.00000000  0.50000000  0.00000000  1.0
  Ni  Ni6  1  0.00000000  0.50000000  0.50000000  1.0
  Ni  Ni7  1  0.50000000  0.00000000  0.00000000  1.0
