# generated using pymatgen
data_Dy
_symmetry_space_group_name_H-M   'P 1'
_cell_length_a   5.78268927
_cell_length_b   5.78268927
_cell_length_c   5.78268927
_cell_angle_alpha   105.94148727
_cell_angle_beta   105.94148728
_cell_angle_gamma   116.78789376
_symmetry_Int_Tables_number   1
_chemical_formula_structural   Dy
_chemical_formula_sum   Dy2
_cell_volume   147.01377978
_cell_formula_units_Z   2
loop_
 _symmetry_equiv_pos_site_id
 _symmetry_equiv_pos_as_xyz
  1  'x, y, z'
loop_
 _atom_site_type_symbol
 _atom_site_label
 _atom_site_symmetry_multiplicity
 _atom_site_fract_x
 _atom_site_fract_y
 _atom_site_fract_z
 _atom_site_occupancy
  Dy  Dy0  1  0.00000000  0.00000000  0.00000000  1.0
  Dy  Dy1  1  0.75000000  0.25000000  0.50000000  1.0
