# generated using pymatgen
data_Fe
_symmetry_space_group_name_H-M   'P 1'
_cell_length_a   5.16462200
_cell_length_b   8.85977321
_cell_length_c   9.53169730
_cell_angle_alpha   89.96400447
_cell_angle_beta   89.88732827
_cell_angle_gamma   89.93213573
_symmetry_Int_Tables_number   1
_chemical_formula_structural   Fe
_chemical_formula_sum   Fe8
_cell_volume   436.14425724
_cell_formula_units_Z   8
loop_
 _symmetry_equiv_pos_site_id
 _symmetry_equiv_pos_as_xyz
  1  'x, y, z'
loop_
 _atom_site_type_symbol
 _atom_site_label
 _atom_site_symmetry_multiplicity
 _atom_site_fract_x
 _atom_site_fract_y
 _atom_site_fract_z
 _atom_site_occupancy
  Fe  Fe0  1  0.81205700  0.84816800  0.58278300  1.0
  Fe  Fe1  1  0.31006600  0.65316400  0.58317500  1.0
  Fe  Fe2  1  0.82358200  0.53092100  0.79764300  1.0
  Fe  Fe3  1  0.17555000  0.46938800  0.29780100  1.0
  Fe  Fe4  1  0.69006300  0.34844800  0.08233300  1.0
  Fe  Fe5  1  0.81238700  0.16044600  0.80731000  1.0
  Fe  Fe6  1  0.19109700  0.15157300  0.08279000  1.0
  Fe  Fe7  1  0.67552700  0.03037600  0.29821600  1.0
