# generated using pymatgen
data_MnCr2
_symmetry_space_group_name_H-M   'P 1'
_cell_length_a   6.06931706
_cell_length_b   6.06931470
_cell_length_c   6.06931786
_cell_angle_alpha   60.12091798
_cell_angle_beta   60.12094766
_cell_angle_gamma   60.12086470
_symmetry_Int_Tables_number   1
_chemical_formula_structural   MnCr2
_chemical_formula_sum   'Mn2 Cr4'
_cell_volume   158.52303440
_cell_formula_units_Z   2
loop_
 _symmetry_equiv_pos_site_id
 _symmetry_equiv_pos_as_xyz
  1  'x, y, z'
loop_
 _atom_site_type_symbol
 _atom_site_label
 _atom_site_symmetry_multiplicity
 _atom_site_fract_x
 _atom_site_fract_y
 _atom_site_fract_z
 _atom_site_occupancy
  Mn  Mn0  1  0.87498700  0.87498900  0.87498900  1.0
  Mn  Mn1  1  0.12494900  0.12494800  0.12494800  1.0
  Cr  Cr2  1  0.00031200  0.49986600  0.49986100  1.0
  Cr  Cr3  1  0.49986200  0.49986500  0.00031000  1.0
  Cr  Cr4  1  0.49986300  0.00031100  0.49986400  1.0
  Cr  Cr5  1  0.49998700  0.49998500  0.49998700  1.0
