# generated using pymatgen
data_Nb2Pb
_symmetry_space_group_name_H-M   'P 1'
_cell_length_a   7.33912805
_cell_length_b   7.33912805
_cell_length_c   7.33912859
_cell_angle_alpha   93.99041941
_cell_angle_beta   93.99041941
_cell_angle_gamma   93.99042007
_symmetry_Int_Tables_number   1
_chemical_formula_structural   Nb2Pb
_chemical_formula_sum   'Nb6 Pb3'
_cell_volume   392.28975658
_cell_formula_units_Z   3
loop_
 _symmetry_equiv_pos_site_id
 _symmetry_equiv_pos_as_xyz
  1  'x, y, z'
loop_
 _atom_site_type_symbol
 _atom_site_label
 _atom_site_symmetry_multiplicity
 _atom_site_fract_x
 _atom_site_fract_y
 _atom_site_fract_z
 _atom_site_occupancy
  Nb  Nb0  1  0.83803700  0.48712300  0.18521500  1.0
  Nb  Nb1  1  0.48712300  0.18521500  0.83803700  1.0
  Nb  Nb2  1  0.18521500  0.83803700  0.48712300  1.0
  Nb  Nb3  1  0.83803700  0.18521500  0.48712300  1.0
  Nb  Nb4  1  0.18521500  0.48712300  0.83803700  1.0
  Nb  Nb5  1  0.48712300  0.83803700  0.18521500  1.0
  Pb  Pb6  1  0.00780100  0.00780100  0.00780100  1.0
  Pb  Pb7  1  0.35031200  0.35031200  0.35031200  1.0
  Pb  Pb8  1  0.64634300  0.64634300  0.64634300  1.0
