# generated using pymatgen
data_TaCo2
_symmetry_space_group_name_H-M   'P 1'
_cell_length_a   5.78294500
_cell_length_b   8.03839600
_cell_length_c   16.88568755
_cell_angle_alpha   89.90844241
_cell_angle_beta   90.00000000
_cell_angle_gamma   90.00000000
_symmetry_Int_Tables_number   1
_chemical_formula_structural   TaCo2
_chemical_formula_sum   'Ta4 Co8'
_cell_volume   784.94034824
_cell_formula_units_Z   4
loop_
 _symmetry_equiv_pos_site_id
 _symmetry_equiv_pos_as_xyz
  1  'x, y, z'
loop_
 _atom_site_type_symbol
 _atom_site_label
 _atom_site_symmetry_multiplicity
 _atom_site_fract_x
 _atom_site_fract_y
 _atom_site_fract_z
 _atom_site_occupancy
  Ta  Ta0  1  0.49894200  0.99768400  0.16674000  1.0
  Ta  Ta1  1  0.50105800  0.00231600  0.83326000  1.0
  Ta  Ta2  1  0.00105800  0.49768400  0.66674000  1.0
  Ta  Ta3  1  0.99894200  0.50231600  0.33326000  1.0
  Co  Co4  1  0.99641700  0.00021800  0.66979900  1.0
  Co  Co5  1  0.00358300  0.99978200  0.33020100  1.0
  Co  Co6  1  0.00000000  0.00000000  0.00000000  1.0
  Co  Co7  1  0.50000000  0.50000000  0.50000000  1.0
  Co  Co8  1  0.50358300  0.50021800  0.16979900  1.0
  Co  Co9  1  0.49641700  0.49978200  0.83020100  1.0
  Co  Co10  1  0.50000000  0.00000000  0.50000000  1.0
  Co  Co11  1  0.00000000  0.50000000  0.00000000  1.0
