# generated using pymatgen
data_Ti
_symmetry_space_group_name_H-M   'P 1'
_cell_length_a   5.49878800
_cell_length_b   5.55620900
_cell_length_c   20.78753291
_cell_angle_alpha   90.00000000
_cell_angle_beta   97.60030569
_cell_angle_gamma   90.00000000
_symmetry_Int_Tables_number   1
_chemical_formula_structural   Ti
_chemical_formula_sum   Ti8
_cell_volume   629.52979952
_cell_formula_units_Z   8
loop_
 _symmetry_equiv_pos_site_id
 _symmetry_equiv_pos_as_xyz
  1  'x, y, z'
loop_
 _atom_site_type_symbol
 _atom_site_label
 _atom_site_symmetry_multiplicity
 _atom_site_fract_x
 _atom_site_fract_y
 _atom_site_fract_z
 _atom_site_occupancy
  Ti  Ti0  1  0.20445200  0.76894400  0.90407300  1.0
  Ti  Ti1  1  0.30037900  0.76894400  0.09592700  1.0
  Ti  Ti2  1  0.79554800  0.26894400  0.09592700  1.0
  Ti  Ti3  1  0.69962100  0.26894400  0.90407300  1.0
  Ti  Ti4  1  0.09914700  0.77034600  0.69569600  1.0
  Ti  Ti5  1  0.40345100  0.77034600  0.30430400  1.0
  Ti  Ti6  1  0.90085300  0.27034600  0.30430400  1.0
  Ti  Ti7  1  0.59654900  0.27034600  0.69569600  1.0
