# generated using pymatgen
data_Fe
_symmetry_space_group_name_H-M   'P 1'
_cell_length_a   3.17415097
_cell_length_b   9.37163498
_cell_length_c   9.47414200
_cell_angle_alpha   90.00000000
_cell_angle_beta   90.00000000
_cell_angle_gamma   90.51438962
_symmetry_Int_Tables_number   1
_chemical_formula_structural   Fe
_chemical_formula_sum   Fe8
_cell_volume   281.81579531
_cell_formula_units_Z   8
loop_
 _symmetry_equiv_pos_site_id
 _symmetry_equiv_pos_as_xyz
  1  'x, y, z'
loop_
 _atom_site_type_symbol
 _atom_site_label
 _atom_site_symmetry_multiplicity
 _atom_site_fract_x
 _atom_site_fract_y
 _atom_site_fract_z
 _atom_site_occupancy
  Fe  Fe0  1  0.66890600  0.50342950  0.55630300  1.0
  Fe  Fe1  1  0.66890600  0.00342950  0.44369700  1.0
  Fe  Fe2  1  0.17041200  0.72926800  0.31779700  1.0
  Fe  Fe3  1  0.17041200  0.22926800  0.68220300  1.0
  Fe  Fe4  1  0.66868800  0.49682900  0.18612800  1.0
  Fe  Fe5  1  0.66868800  0.99682900  0.81387200  1.0
  Fe  Fe6  1  0.16992100  0.21424350  0.05696350  1.0
  Fe  Fe7  1  0.16992100  0.71424350  0.94303650  1.0
