# generated using pymatgen
data_Cu
_symmetry_space_group_name_H-M   'P 1'
_cell_length_a   5.52013400
_cell_length_b   5.56297219
_cell_length_c   7.15521914
_cell_angle_alpha   80.88764321
_cell_angle_beta   88.08035912
_cell_angle_gamma   75.41241840
_symmetry_Int_Tables_number   1
_chemical_formula_structural   Cu
_chemical_formula_sum   Cu4
_cell_volume   209.95358112
_cell_formula_units_Z   4
loop_
 _symmetry_equiv_pos_site_id
 _symmetry_equiv_pos_as_xyz
  1  'x, y, z'
loop_
 _atom_site_type_symbol
 _atom_site_label
 _atom_site_symmetry_multiplicity
 _atom_site_fract_x
 _atom_site_fract_y
 _atom_site_fract_z
 _atom_site_occupancy
  Cu  Cu0  1  0.61592700  0.95053600  0.72441400  1.0
  Cu  Cu1  1  0.11765200  0.94945800  0.71738600  1.0
  Cu  Cu2  1  0.88234800  0.05054200  0.28261400  1.0
  Cu  Cu3  1  0.38407300  0.04946400  0.27558600  1.0
