# generated using pymatgen
data_Sm2MnNi
_symmetry_space_group_name_H-M   'P 1'
_cell_length_a   5.37049506
_cell_length_b   5.63323800
_cell_length_c   7.67716721
_cell_angle_alpha   90.00000000
_cell_angle_beta   89.75695763
_cell_angle_gamma   90.00000000
_symmetry_Int_Tables_number   1
_chemical_formula_structural   Sm2MnNi
_chemical_formula_sum   'Sm4 Mn2 Ni2'
_cell_volume   232.25737544
_cell_formula_units_Z   2
loop_
 _symmetry_equiv_pos_site_id
 _symmetry_equiv_pos_as_xyz
  1  'x, y, z'
loop_
 _atom_site_type_symbol
 _atom_site_label
 _atom_site_symmetry_multiplicity
 _atom_site_fract_x
 _atom_site_fract_y
 _atom_site_fract_z
 _atom_site_occupancy
  Sm  Sm0  1  0.51641700  0.56416600  0.25088900  1.0
  Sm  Sm1  1  0.01641700  0.93583400  0.75088900  1.0
  Sm  Sm2  1  0.48358300  0.43583400  0.74911100  1.0
  Sm  Sm3  1  0.98358300  0.06416600  0.24911100  1.0
  Mn  Mn4  1  0.00000000  0.50000000  0.50000000  1.0
  Mn  Mn5  1  0.50000000  0.00000000  0.00000000  1.0
  Ni  Ni6  1  0.50000000  0.00000000  0.50000000  1.0
  Ni  Ni7  1  0.00000000  0.50000000  0.00000000  1.0
