# generated using pymatgen
data_TiMn
_symmetry_space_group_name_H-M   'P 1'
_cell_length_a   5.20589800
_cell_length_b   5.39842700
_cell_length_c   7.56134700
_cell_angle_alpha   90.00000000
_cell_angle_beta   90.00000000
_cell_angle_gamma   89.99993514
_symmetry_Int_Tables_number   1
_chemical_formula_structural   TiMn
_chemical_formula_sum   'Ti4 Mn4'
_cell_volume   212.50152767
_cell_formula_units_Z   4
loop_
 _symmetry_equiv_pos_site_id
 _symmetry_equiv_pos_as_xyz
  1  'x, y, z'
loop_
 _atom_site_type_symbol
 _atom_site_label
 _atom_site_symmetry_multiplicity
 _atom_site_fract_x
 _atom_site_fract_y
 _atom_site_fract_z
 _atom_site_occupancy
  Ti  Ti0  1  0.50000000  0.00000100  0.50000000  1.0
  Ti  Ti1  1  0.00000000  0.50000000  1.00000000  1.0
  Ti  Ti2  1  0.50000000  0.00000100  0.00000000  1.0
  Ti  Ti3  1  0.00000000  0.50000000  0.50000000  1.0
  Mn  Mn4  1  0.48764500  0.55237300  0.75000100  1.0
  Mn  Mn5  1  0.51235300  0.44761800  0.24999800  1.0
  Mn  Mn6  1  0.98762300  0.94759900  0.25000000  1.0
  Mn  Mn7  1  0.01237800  0.05240300  0.75000000  1.0
