# generated using pymatgen
data_MnCr2
_symmetry_space_group_name_H-M   'P 1'
_cell_length_a   3.35987600
_cell_length_b   5.71428743
_cell_length_c   6.52309027
_cell_angle_alpha   114.69513664
_cell_angle_beta   104.92397469
_cell_angle_gamma   90.00000000
_symmetry_Int_Tables_number   1
_chemical_formula_structural   MnCr2
_chemical_formula_sum   'Mn1 Cr2'
_cell_volume   109.11782560
_cell_formula_units_Z   1
loop_
 _symmetry_equiv_pos_site_id
 _symmetry_equiv_pos_as_xyz
  1  'x, y, z'
loop_
 _atom_site_type_symbol
 _atom_site_label
 _atom_site_symmetry_multiplicity
 _atom_site_fract_x
 _atom_site_fract_y
 _atom_site_fract_z
 _atom_site_occupancy
  Mn  Mn0  1  0.00000000  0.00000000  0.00000000  1.0
  Cr  Cr1  1  0.74369500  0.68789000  0.48739000  1.0
  Cr  Cr2  1  0.25630500  0.31211000  0.51261000  1.0
