# generated using pymatgen
data_Ce
_symmetry_space_group_name_H-M   'P 1'
_cell_length_a   7.74429000
_cell_length_b   8.46254299
_cell_length_c   7.74429000
_cell_angle_alpha   62.77004806
_cell_angle_beta   89.99999999
_cell_angle_gamma   117.22995193
_symmetry_Int_Tables_number   1
_chemical_formula_structural   Ce
_chemical_formula_sum   Ce10
_cell_volume   386.94924722
_cell_formula_units_Z   10
loop_
 _symmetry_equiv_pos_site_id
 _symmetry_equiv_pos_as_xyz
  1  'x, y, z'
loop_
 _atom_site_type_symbol
 _atom_site_label
 _atom_site_symmetry_multiplicity
 _atom_site_fract_x
 _atom_site_fract_y
 _atom_site_fract_z
 _atom_site_occupancy
  Ce  Ce0  1  0.52656700  0.69179100  0.97343300  1.0
  Ce  Ce1  1  0.83477600  0.30820900  0.66522400  1.0
  Ce  Ce2  1  0.33477600  0.30820900  0.52656700  1.0
  Ce  Ce3  1  0.47343300  0.30820900  0.02656700  1.0
  Ce  Ce4  1  0.16522400  0.69179100  0.33477600  1.0
  Ce  Ce5  1  0.50000000  0.00000000  0.50000000  1.0
  Ce  Ce6  1  0.97343300  0.30820900  0.16522400  1.0
  Ce  Ce7  1  0.66522400  0.69179100  0.47343300  1.0
  Ce  Ce8  1  0.00000000  0.00000000  0.00000000  1.0
  Ce  Ce9  1  0.02656700  0.69179100  0.83477600  1.0
