# generated using pymatgen
data_Fe
_symmetry_space_group_name_H-M   'P 1'
_cell_length_a   3.33157108
_cell_length_b   3.86107150
_cell_length_c   8.36457850
_cell_angle_alpha   90.00013367
_cell_angle_beta   90.00088403
_cell_angle_gamma   89.53209349
_symmetry_Int_Tables_number   1
_chemical_formula_structural   Fe
_chemical_formula_sum   Fe2
_cell_volume   107.59361679
_cell_formula_units_Z   2
loop_
 _symmetry_equiv_pos_site_id
 _symmetry_equiv_pos_as_xyz
  1  'x, y, z'
loop_
 _atom_site_type_symbol
 _atom_site_label
 _atom_site_symmetry_multiplicity
 _atom_site_fract_x
 _atom_site_fract_y
 _atom_site_fract_z
 _atom_site_occupancy
  Fe  Fe0  1  0.49991750  0.00000050  0.89227900  1.0
  Fe  Fe1  1  0.00008300  0.49999900  0.10772100  1.0
