# generated using pymatgen
data_UIr
_symmetry_space_group_name_H-M   'P 1'
_cell_length_a   4.36750000
_cell_length_b   6.67557200
_cell_length_c   7.71541100
_cell_angle_alpha   90.00000000
_cell_angle_beta   90.00000000
_cell_angle_gamma   90.00000000
_symmetry_Int_Tables_number   1
_chemical_formula_structural   UIr
_chemical_formula_sum   'U4 Ir4'
_cell_volume   224.94713381
_cell_formula_units_Z   4
loop_
 _symmetry_equiv_pos_site_id
 _symmetry_equiv_pos_as_xyz
  1  'x, y, z'
loop_
 _atom_site_type_symbol
 _atom_site_label
 _atom_site_symmetry_multiplicity
 _atom_site_fract_x
 _atom_site_fract_y
 _atom_site_fract_z
 _atom_site_occupancy
  U  U0  1  0.25000000  0.49181900  0.20320900  1.0
  U  U1  1  0.75000000  0.50818100  0.79679100  1.0
  U  U2  1  0.25000000  0.99181900  0.29679100  1.0
  U  U3  1  0.75000000  0.00818100  0.70320900  1.0
  Ir  Ir4  1  0.75000000  0.77128700  0.08592700  1.0
  Ir  Ir5  1  0.25000000  0.22871300  0.91407300  1.0
  Ir  Ir6  1  0.75000000  0.27128700  0.41407300  1.0
  Ir  Ir7  1  0.25000000  0.72871300  0.58592700  1.0
