# generated using pymatgen
data_CeCu
_symmetry_space_group_name_H-M   'P 1'
_cell_length_a   4.12516400
_cell_length_b   7.07098600
_cell_length_c   7.07098643
_cell_angle_alpha   119.99999800
_cell_angle_beta   90.00000000
_cell_angle_gamma   90.00000000
_symmetry_Int_Tables_number   1
_chemical_formula_structural   CeCu
_chemical_formula_sum   'Ce3 Cu3'
_cell_volume   178.62072213
_cell_formula_units_Z   3
loop_
 _symmetry_equiv_pos_site_id
 _symmetry_equiv_pos_as_xyz
  1  'x, y, z'
loop_
 _atom_site_type_symbol
 _atom_site_label
 _atom_site_symmetry_multiplicity
 _atom_site_fract_x
 _atom_site_fract_y
 _atom_site_fract_z
 _atom_site_occupancy
  Ce  Ce0  1  0.50000000  0.58025100  1.00000000  1.0
  Ce  Ce1  1  0.50000000  0.41974900  0.41974900  1.0
  Ce  Ce2  1  0.50000000  1.00000000  0.58025100  1.0
  Cu  Cu3  1  0.00000000  0.33333333  0.66666667  1.0
  Cu  Cu4  1  0.00000000  0.66666667  0.33333333  1.0
  Cu  Cu5  1  0.50000000  0.00000000  0.00000000  1.0
