# generated using pymatgen
data_Ni
_symmetry_space_group_name_H-M   'P 1'
_cell_length_a   4.96799431
_cell_length_b   4.96799431
_cell_length_c   8.61653007
_cell_angle_alpha   73.24482284
_cell_angle_beta   73.24482284
_cell_angle_gamma   59.99999590
_symmetry_Int_Tables_number   1
_chemical_formula_structural   Ni
_chemical_formula_sum   Ni9
_cell_volume   173.66914242
_cell_formula_units_Z   9
loop_
 _symmetry_equiv_pos_site_id
 _symmetry_equiv_pos_as_xyz
  1  'x, y, z'
loop_
 _atom_site_type_symbol
 _atom_site_label
 _atom_site_symmetry_multiplicity
 _atom_site_fract_x
 _atom_site_fract_y
 _atom_site_fract_z
 _atom_site_occupancy
  Ni  Ni0  1  0.41788200  0.41788200  0.24518100  1.0
  Ni  Ni1  1  0.41788200  0.91905500  0.24518100  1.0
  Ni  Ni2  1  0.50000000  0.50000000  0.50000000  1.0
  Ni  Ni3  1  0.08094500  0.58211800  0.75481900  1.0
  Ni  Ni4  1  0.58211800  0.58211800  0.75481900  1.0
  Ni  Ni5  1  0.33324300  0.33324300  0.00027100  1.0
  Ni  Ni6  1  0.91905500  0.41788200  0.24518100  1.0
  Ni  Ni7  1  0.66675700  0.66675700  0.99972900  1.0
  Ni  Ni8  1  0.58211800  0.08094500  0.75481900  1.0
