# generated using pymatgen
data_Ho3V2
_symmetry_space_group_name_H-M   'P 1'
_cell_length_a   10.99906800
_cell_length_b   10.99906774
_cell_length_c   17.56453400
_cell_angle_alpha   90.00000000
_cell_angle_beta   90.00000000
_cell_angle_gamma   120.00000080
_symmetry_Int_Tables_number   1
_chemical_formula_structural   Ho3V2
_chemical_formula_sum   'Ho12 V8'
_cell_volume   1840.25931314
_cell_formula_units_Z   4
loop_
 _symmetry_equiv_pos_site_id
 _symmetry_equiv_pos_as_xyz
  1  'x, y, z'
loop_
 _atom_site_type_symbol
 _atom_site_label
 _atom_site_symmetry_multiplicity
 _atom_site_fract_x
 _atom_site_fract_y
 _atom_site_fract_z
 _atom_site_occupancy
  Ho  Ho0  1  0.46967900  0.46967900  0.40411700  1.0
  Ho  Ho1  1  0.53032100  0.53032100  0.59588300  1.0
  Ho  Ho2  1  1.00000000  0.53032100  0.40411700  1.0
  Ho  Ho3  1  0.53032100  0.53032100  0.90411700  1.0
  Ho  Ho4  1  1.00000000  0.53032100  0.09588300  1.0
  Ho  Ho5  1  1.00000000  0.46967900  0.59588300  1.0
  Ho  Ho6  1  0.46967900  0.46967900  0.09588300  1.0
  Ho  Ho7  1  1.00000000  0.46967900  0.90411700  1.0
  Ho  Ho8  1  0.53032100  1.00000000  0.40411700  1.0
  Ho  Ho9  1  0.46967900  1.00000000  0.59588300  1.0
  Ho  Ho10  1  0.46967900  1.00000000  0.90411700  1.0
  Ho  Ho11  1  0.53032100  1.00000000  0.09588300  1.0
  V  V12  1  0.00000000  0.00000000  0.50000000  1.0
  V  V13  1  0.00000000  0.00000000  0.00000000  1.0
  V  V14  1  0.26981900  0.26981900  0.25000000  1.0
  V  V15  1  0.73018100  0.73018100  0.75000000  1.0
  V  V16  1  1.00000000  0.73018100  0.25000000  1.0
  V  V17  1  1.00000000  0.26981900  0.75000000  1.0
  V  V18  1  0.73018100  0.00000000  0.25000000  1.0
  V  V19  1  0.26981900  0.00000000  0.75000000  1.0
