# generated using pymatgen
data_Mn
_symmetry_space_group_name_H-M   'P 1'
_cell_length_a   8.54772456
_cell_length_b   8.54772456
_cell_length_c   8.54772456
_cell_angle_alpha   60.00000000
_cell_angle_beta   60.00000000
_cell_angle_gamma   60.00000000
_symmetry_Int_Tables_number   1
_chemical_formula_structural   Mn
_chemical_formula_sum   Mn23
_cell_volume   441.60762091
_cell_formula_units_Z   23
loop_
 _symmetry_equiv_pos_site_id
 _symmetry_equiv_pos_as_xyz
  1  'x, y, z'
loop_
 _atom_site_type_symbol
 _atom_site_label
 _atom_site_symmetry_multiplicity
 _atom_site_fract_x
 _atom_site_fract_y
 _atom_site_fract_z
 _atom_site_occupancy
  Mn  Mn0  1  0.50000000  0.50000000  0.50000000  1.0
  Mn  Mn1  1  0.50000000  0.50000000  0.00000000  1.0
  Mn  Mn2  1  0.00000000  0.50000000  0.50000000  1.0
  Mn  Mn3  1  0.00000000  0.50000000  1.00000000  1.0
  Mn  Mn4  1  0.00000000  0.00000000  0.50000000  1.0
  Mn  Mn5  1  0.50000000  0.00000000  1.00000000  1.0
  Mn  Mn6  1  0.50000000  0.00000000  0.50000000  1.0
  Mn  Mn7  1  0.17785600  0.46643000  0.17785700  1.0
  Mn  Mn8  1  0.17785600  0.17785700  0.17785700  1.0
  Mn  Mn9  1  0.17785600  0.17785700  0.46643000  1.0
  Mn  Mn10  1  0.46642900  0.17785700  0.17785700  1.0
  Mn  Mn11  1  0.82214400  0.53357000  0.82214300  1.0
  Mn  Mn12  1  0.82214400  0.82214300  0.82214300  1.0
  Mn  Mn13  1  0.82214400  0.82214300  0.53357000  1.0
  Mn  Mn14  1  0.53357100  0.82214300  0.82214300  1.0
  Mn  Mn15  1  0.37794300  0.86617100  0.37794300  1.0
  Mn  Mn16  1  0.37794300  0.37794300  0.37794300  1.0
  Mn  Mn17  1  0.37794300  0.37794300  0.86617100  1.0
  Mn  Mn18  1  0.86617100  0.37794300  0.37794300  1.0
  Mn  Mn19  1  0.62205700  0.13382900  0.62205700  1.0
  Mn  Mn20  1  0.62205700  0.62205700  0.62205700  1.0
  Mn  Mn21  1  0.62205700  0.62205700  0.13382900  1.0
  Mn  Mn22  1  0.13382900  0.62205700  0.62205700  1.0
