# generated using pymatgen
data_Mn2V3Pb2
_symmetry_space_group_name_H-M   'P 1'
_cell_length_a   11.32151967
_cell_length_b   11.32151967
_cell_length_c   11.32151967
_cell_angle_alpha   110.13327986
_cell_angle_beta   109.14120876
_cell_angle_gamma   109.14120876
_symmetry_Int_Tables_number   1
_chemical_formula_structural   Mn2V3Pb2
_chemical_formula_sum   'Mn8 V12 Pb8'
_cell_volume   1116.98858453
_cell_formula_units_Z   4
loop_
 _symmetry_equiv_pos_site_id
 _symmetry_equiv_pos_as_xyz
  1  'x, y, z'
loop_
 _atom_site_type_symbol
 _atom_site_label
 _atom_site_symmetry_multiplicity
 _atom_site_fract_x
 _atom_site_fract_y
 _atom_site_fract_z
 _atom_site_occupancy
  Mn  Mn0  1  0.75000000  0.62500000  0.87500000  1.0
  Mn  Mn1  1  0.25000000  0.62500000  0.87500000  1.0
  Mn  Mn2  1  0.75000000  0.12500000  0.37500000  1.0
  Mn  Mn3  1  0.25000000  0.62500000  0.37500000  1.0
  Mn  Mn4  1  0.75000000  0.12500000  0.87500000  1.0
  Mn  Mn5  1  0.25000000  0.12500000  0.87500000  1.0
  Mn  Mn6  1  0.75000000  0.62500000  0.37500000  1.0
  Mn  Mn7  1  0.25000000  0.12500000  0.37500000  1.0
  V  V8  1  0.37524200  0.50024200  0.62500000  1.0
  V  V9  1  1.00000000  0.50000000  0.50000000  1.0
  V  V10  1  0.87524200  0.37500000  0.75024200  1.0
  V  V11  1  0.37524200  0.37500000  0.25024200  1.0
  V  V12  1  0.50000000  0.25000000  0.75000000  1.0
  V  V13  1  0.62475800  0.24975800  0.12500000  1.0
  V  V14  1  0.87524200  0.00024200  0.62500000  1.0
  V  V15  1  0.62475800  0.87500000  0.99975800  1.0
  V  V16  1  0.00000000  0.00000000  0.00000000  1.0
  V  V17  1  0.12475800  0.87500000  0.49975800  1.0
  V  V18  1  0.50000000  0.75000000  0.25000000  1.0
  V  V19  1  0.12475800  0.74975800  0.12500000  1.0
  Pb  Pb20  1  0.62772000  0.37500000  0.50272000  1.0
  Pb  Pb21  1  0.87228000  0.49728000  0.12500000  1.0
  Pb  Pb22  1  0.12772000  0.37500000  0.00272000  1.0
  Pb  Pb23  1  0.12772000  0.25272000  0.62500000  1.0
  Pb  Pb24  1  0.37228000  0.87500000  0.74728000  1.0
  Pb  Pb25  1  0.37228000  0.99728000  0.12500000  1.0
  Pb  Pb26  1  0.62772000  0.75272000  0.62500000  1.0
  Pb  Pb27  1  0.87228000  0.87500000  0.24728000  1.0
