# generated using pymatgen
data_TbCu
_symmetry_space_group_name_H-M   'P 1'
_cell_length_a   4.05355200
_cell_length_b   7.02119000
_cell_length_c   7.02118922
_cell_angle_alpha   120.00000369
_cell_angle_beta   90.00000000
_cell_angle_gamma   90.00000000
_symmetry_Int_Tables_number   1
_chemical_formula_structural   TbCu
_chemical_formula_sum   'Tb3 Cu3'
_cell_volume   173.05644075
_cell_formula_units_Z   3
loop_
 _symmetry_equiv_pos_site_id
 _symmetry_equiv_pos_as_xyz
  1  'x, y, z'
loop_
 _atom_site_type_symbol
 _atom_site_label
 _atom_site_symmetry_multiplicity
 _atom_site_fract_x
 _atom_site_fract_y
 _atom_site_fract_z
 _atom_site_occupancy
  Tb  Tb0  1  0.50000000  0.58574900  1.00000000  1.0
  Tb  Tb1  1  0.50000000  0.41425100  0.41425100  1.0
  Tb  Tb2  1  0.50000000  1.00000000  0.58574900  1.0
  Cu  Cu3  1  0.00000000  0.33333333  0.66666667  1.0
  Cu  Cu4  1  0.00000000  0.66666667  0.33333333  1.0
  Cu  Cu5  1  0.50000000  0.00000000  0.00000000  1.0
