# generated using pymatgen
data_Ce3Ru
_symmetry_space_group_name_H-M   'P 1'
_cell_length_a   4.75665400
_cell_length_b   8.60933574
_cell_length_c   13.31656300
_cell_angle_alpha   90.00000000
_cell_angle_beta   90.00000000
_cell_angle_gamma   106.03650602
_symmetry_Int_Tables_number   1
_chemical_formula_structural   Ce3Ru
_chemical_formula_sum   'Ce6 Ru2'
_cell_volume   524.11374642
_cell_formula_units_Z   2
loop_
 _symmetry_equiv_pos_site_id
 _symmetry_equiv_pos_as_xyz
  1  'x, y, z'
loop_
 _atom_site_type_symbol
 _atom_site_label
 _atom_site_symmetry_multiplicity
 _atom_site_fract_x
 _atom_site_fract_y
 _atom_site_fract_z
 _atom_site_occupancy
  Ce  Ce0  1  0.39771200  0.79542400  0.75000000  1.0
  Ce  Ce1  1  0.60228800  0.20457600  0.25000000  1.0
  Ce  Ce2  1  0.60100600  0.20201200  0.59441600  1.0
  Ce  Ce3  1  0.39899400  0.79798800  0.40558400  1.0
  Ce  Ce4  1  0.60100600  0.20201200  0.90558400  1.0
  Ce  Ce5  1  0.39899400  0.79798800  0.09441600  1.0
  Ru  Ru6  1  0.19846100  0.39692200  0.75000000  1.0
  Ru  Ru7  1  0.80153900  0.60307800  0.25000000  1.0
