# generated using pymatgen
data_Tm3Nb2
_symmetry_space_group_name_H-M   'P 1'
_cell_length_a   11.11415399
_cell_length_b   11.11415425
_cell_length_c   17.65543600
_cell_angle_alpha   90.00000000
_cell_angle_beta   90.00000000
_cell_angle_gamma   119.99999924
_symmetry_Int_Tables_number   1
_chemical_formula_structural   Tm3Nb2
_chemical_formula_sum   'Tm12 Nb8'
_cell_volume   1888.69535322
_cell_formula_units_Z   4
loop_
 _symmetry_equiv_pos_site_id
 _symmetry_equiv_pos_as_xyz
  1  'x, y, z'
loop_
 _atom_site_type_symbol
 _atom_site_label
 _atom_site_symmetry_multiplicity
 _atom_site_fract_x
 _atom_site_fract_y
 _atom_site_fract_z
 _atom_site_occupancy
  Tm  Tm0  1  0.46973100  0.46973100  0.40387500  1.0
  Tm  Tm1  1  0.53026900  0.53026900  0.59612500  1.0
  Tm  Tm2  1  0.00000000  0.53026900  0.40387500  1.0
  Tm  Tm3  1  0.53026900  0.53026900  0.90387500  1.0
  Tm  Tm4  1  0.00000000  0.53026900  0.09612500  1.0
  Tm  Tm5  1  0.00000000  0.46973100  0.59612500  1.0
  Tm  Tm6  1  0.46973100  0.46973100  0.09612500  1.0
  Tm  Tm7  1  0.00000000  0.46973100  0.90387500  1.0
  Tm  Tm8  1  0.53026900  1.00000000  0.40387500  1.0
  Tm  Tm9  1  0.46973100  1.00000000  0.59612500  1.0
  Tm  Tm10  1  0.46973100  1.00000000  0.90387500  1.0
  Tm  Tm11  1  0.53026900  1.00000000  0.09612500  1.0
  Nb  Nb12  1  0.00000000  0.00000000  0.50000000  1.0
  Nb  Nb13  1  0.00000000  0.00000000  0.00000000  1.0
  Nb  Nb14  1  0.27476500  0.27476500  0.25000000  1.0
  Nb  Nb15  1  0.72523500  0.72523500  0.75000000  1.0
  Nb  Nb16  1  0.00000000  0.72523500  0.25000000  1.0
  Nb  Nb17  1  0.00000000  0.27476500  0.75000000  1.0
  Nb  Nb18  1  0.72523500  1.00000000  0.25000000  1.0
  Nb  Nb19  1  0.27476500  0.00000000  0.75000000  1.0
