# generated using pymatgen
data_Tm
_symmetry_space_group_name_H-M   'P 1'
_cell_length_a   6.63852800
_cell_length_b   6.93774000
_cell_length_c   6.72093703
_cell_angle_alpha   90.00000000
_cell_angle_beta   105.82663937
_cell_angle_gamma   90.00000000
_symmetry_Int_Tables_number   1
_chemical_formula_structural   Tm
_chemical_formula_sum   Tm4
_cell_volume   297.80770006
_cell_formula_units_Z   4
loop_
 _symmetry_equiv_pos_site_id
 _symmetry_equiv_pos_as_xyz
  1  'x, y, z'
loop_
 _atom_site_type_symbol
 _atom_site_label
 _atom_site_symmetry_multiplicity
 _atom_site_fract_x
 _atom_site_fract_y
 _atom_site_fract_z
 _atom_site_occupancy
  Tm  Tm0  1  0.41508200  0.14371900  0.21933800  1.0
  Tm  Tm1  1  0.08491800  0.64371900  0.28066200  1.0
  Tm  Tm2  1  0.91508200  0.35628100  0.71933800  1.0
  Tm  Tm3  1  0.58491800  0.85628100  0.78066200  1.0
