# generated using pymatgen
data_Pu
_symmetry_space_group_name_H-M   'P 1'
_cell_length_a   6.15310402
_cell_length_b   6.15310402
_cell_length_c   10.20544637
_cell_angle_alpha   72.45457539
_cell_angle_beta   72.45457539
_cell_angle_gamma   59.99999981
_symmetry_Int_Tables_number   1
_chemical_formula_structural   Pu
_chemical_formula_sum   Pu4
_cell_volume   313.69169185
_cell_formula_units_Z   4
loop_
 _symmetry_equiv_pos_site_id
 _symmetry_equiv_pos_as_xyz
  1  'x, y, z'
loop_
 _atom_site_type_symbol
 _atom_site_label
 _atom_site_symmetry_multiplicity
 _atom_site_fract_x
 _atom_site_fract_y
 _atom_site_fract_z
 _atom_site_occupancy
  Pu  Pu0  1  0.71110400  0.71110400  0.86668800  1.0
  Pu  Pu1  1  0.28889600  0.28889600  0.13331200  1.0
  Pu  Pu2  1  0.87200500  0.87200500  0.38398500  1.0
  Pu  Pu3  1  0.12799500  0.12799500  0.61601500  1.0
