# generated using pymatgen
data_Tb
_symmetry_space_group_name_H-M   'P 1'
_cell_length_a   4.28583400
_cell_length_b   4.28583400
_cell_length_c   8.89182719
_cell_angle_alpha   103.94548002
_cell_angle_beta   103.94548002
_cell_angle_gamma   90.00000001
_symmetry_Int_Tables_number   1
_chemical_formula_structural   Tb
_chemical_formula_sum   Tb2
_cell_volume   153.54949617
_cell_formula_units_Z   2
loop_
 _symmetry_equiv_pos_site_id
 _symmetry_equiv_pos_as_xyz
  1  'x, y, z'
loop_
 _atom_site_type_symbol
 _atom_site_label
 _atom_site_symmetry_multiplicity
 _atom_site_fract_x
 _atom_site_fract_y
 _atom_site_fract_z
 _atom_site_occupancy
  Tb  Tb0  1  0.67681100  0.67681100  0.35362200  1.0
  Tb  Tb1  1  0.32318900  0.32318900  0.64637800  1.0
