# generated using pymatgen
data_TiCo
_symmetry_space_group_name_H-M   'P 1'
_cell_length_a   5.57998352
_cell_length_b   5.67952901
_cell_length_c   7.94140282
_cell_angle_alpha   89.99981527
_cell_angle_beta   90.03136753
_cell_angle_gamma   89.99148178
_symmetry_Int_Tables_number   1
_chemical_formula_structural   TiCo
_chemical_formula_sum   'Ti2 Co2'
_cell_volume   251.67634279
_cell_formula_units_Z   2
loop_
 _symmetry_equiv_pos_site_id
 _symmetry_equiv_pos_as_xyz
  1  'x, y, z'
loop_
 _atom_site_type_symbol
 _atom_site_label
 _atom_site_symmetry_multiplicity
 _atom_site_fract_x
 _atom_site_fract_y
 _atom_site_fract_z
 _atom_site_occupancy
  Co  Co0  1  0.99999600  0.00000800  0.50002700  1.0
  Co  Co1  1  0.50000850  0.49999150  0.99997450  1.0
  Ti  Ti2  1  0.00003400  0.99994700  0.00008200  1.0
  Ti  Ti3  1  0.49997650  0.50004150  0.49994250  1.0
