# generated using pymatgen
data_Tb
_symmetry_space_group_name_H-M   'P 1'
_cell_length_a   6.41440200
_cell_length_b   8.49305800
_cell_length_c   8.49305801
_cell_angle_alpha   60.00000006
_cell_angle_beta   90.00000000
_cell_angle_gamma   90.00000000
_symmetry_Int_Tables_number   1
_chemical_formula_structural   Tb
_chemical_formula_sum   Tb10
_cell_volume   400.69598097
_cell_formula_units_Z   10
loop_
 _symmetry_equiv_pos_site_id
 _symmetry_equiv_pos_as_xyz
  1  'x, y, z'
loop_
 _atom_site_type_symbol
 _atom_site_label
 _atom_site_symmetry_multiplicity
 _atom_site_fract_x
 _atom_site_fract_y
 _atom_site_fract_z
 _atom_site_occupancy
  Tb  Tb0  1  0.25000000  0.24340300  0.75659700  1.0
  Tb  Tb1  1  0.75000000  0.75659700  0.24340300  1.0
  Tb  Tb2  1  0.75000000  0.24340300  0.00000000  1.0
  Tb  Tb3  1  0.25000000  0.00000000  0.24340300  1.0
  Tb  Tb4  1  0.25000000  0.75659700  1.00000000  1.0
  Tb  Tb5  1  0.75000000  0.00000000  0.75659700  1.0
  Tb  Tb6  1  0.50000000  0.33333333  0.33333333  1.0
  Tb  Tb7  1  1.00000000  0.66666667  0.66666667  1.0
  Tb  Tb8  1  0.50000000  0.66666667  0.66666667  1.0
  Tb  Tb9  1  1.00000000  0.33333333  0.33333333  1.0
