# generated using pymatgen
data_CePd
_symmetry_space_group_name_H-M   'P 1'
_cell_length_a   4.46161000
_cell_length_b   5.66048059
_cell_length_c   5.82391212
_cell_angle_alpha   78.48187507
_cell_angle_beta   67.47773923
_cell_angle_gamma   66.79003909
_symmetry_Int_Tables_number   1
_chemical_formula_structural   CePd
_chemical_formula_sum   'Ce2 Pd2'
_cell_volume   124.66252501
_cell_formula_units_Z   2
loop_
 _symmetry_equiv_pos_site_id
 _symmetry_equiv_pos_as_xyz
  1  'x, y, z'
loop_
 _atom_site_type_symbol
 _atom_site_label
 _atom_site_symmetry_multiplicity
 _atom_site_fract_x
 _atom_site_fract_y
 _atom_site_fract_z
 _atom_site_occupancy
  Ce  Ce0  1  0.46143800  0.77655800  0.30056600  1.0
  Ce  Ce1  1  0.53856200  0.22344200  0.69943400  1.0
  Pd  Pd2  1  0.82200300  0.64120000  0.71479400  1.0
  Pd  Pd3  1  0.17799700  0.35880000  0.28520600  1.0
