# generated using pymatgen
data_Ho3Cu4
_symmetry_space_group_name_H-M   'P 1'
_cell_length_a   4.46170200
_cell_length_b   6.93955515
_cell_length_c   8.40399148
_cell_angle_alpha   114.23823765
_cell_angle_beta   105.39377463
_cell_angle_gamma   90.00000000
_symmetry_Int_Tables_number   1
_chemical_formula_structural   Ho3Cu4
_chemical_formula_sum   'Ho3 Cu4'
_cell_volume   226.99167555
_cell_formula_units_Z   1
loop_
 _symmetry_equiv_pos_site_id
 _symmetry_equiv_pos_as_xyz
  1  'x, y, z'
loop_
 _atom_site_type_symbol
 _atom_site_label
 _atom_site_symmetry_multiplicity
 _atom_site_fract_x
 _atom_site_fract_y
 _atom_site_fract_z
 _atom_site_occupancy
  Ho  Ho0  1  0.00000000  0.00000000  0.00000000  1.0
  Ho  Ho1  1  0.86929900  0.36505200  0.73859800  1.0
  Ho  Ho2  1  0.13070100  0.63494800  0.26140200  1.0
  Cu  Cu3  1  0.66744700  0.98023900  0.33489400  1.0
  Cu  Cu4  1  0.33255300  0.01976100  0.66510600  1.0
  Cu  Cu5  1  0.67650400  0.36826500  0.35300800  1.0
  Cu  Cu6  1  0.32349600  0.63173500  0.64699200  1.0
