# generated using pymatgen
data_Er3Cu4
_symmetry_space_group_name_H-M   'P 1'
_cell_length_a   4.46087700
_cell_length_b   6.93379200
_cell_length_c   8.39526446
_cell_angle_alpha   114.39081807
_cell_angle_beta   105.40725021
_cell_angle_gamma   90.00000822
_symmetry_Int_Tables_number   1
_chemical_formula_structural   Er3Cu4
_chemical_formula_sum   'Er3 Cu4'
_cell_volume   226.21016056
_cell_formula_units_Z   1
loop_
 _symmetry_equiv_pos_site_id
 _symmetry_equiv_pos_as_xyz
  1  'x, y, z'
loop_
 _atom_site_type_symbol
 _atom_site_label
 _atom_site_symmetry_multiplicity
 _atom_site_fract_x
 _atom_site_fract_y
 _atom_site_fract_z
 _atom_site_occupancy
  Er  Er0  1  0.00000000  0.00000000  0.00000000  1.0
  Er  Er1  1  0.13108200  0.63108200  0.26216400  1.0
  Er  Er2  1  0.86891800  0.36891800  0.73783600  1.0
  Cu  Cu3  1  0.67201800  0.98312900  0.34403500  1.0
  Cu  Cu4  1  0.67201700  0.36090600  0.34403400  1.0
  Cu  Cu5  1  0.32798200  0.01687100  0.65596500  1.0
  Cu  Cu6  1  0.32798300  0.63909400  0.65596600  1.0
