# generated using pymatgen
data_ThMn
_symmetry_space_group_name_H-M   'P 1'
_cell_length_a   5.49194808
_cell_length_b   5.49194808
_cell_length_c   5.49194808
_cell_angle_alpha   88.28670535
_cell_angle_beta   60.97582559
_cell_angle_gamma   119.00744238
_symmetry_Int_Tables_number   1
_chemical_formula_structural   ThMn
_chemical_formula_sum   'Th2 Mn2'
_cell_volume   118.81388781
_cell_formula_units_Z   2
loop_
 _symmetry_equiv_pos_site_id
 _symmetry_equiv_pos_as_xyz
  1  'x, y, z'
loop_
 _atom_site_type_symbol
 _atom_site_label
 _atom_site_symmetry_multiplicity
 _atom_site_fract_x
 _atom_site_fract_y
 _atom_site_fract_z
 _atom_site_occupancy
  Th  Th0  1  0.25000000  0.36475900  0.88524100  1.0
  Th  Th1  1  0.75000000  0.63524100  0.11475900  1.0
  Mn  Mn2  1  0.00000000  0.00000000  0.50000000  1.0
  Mn  Mn3  1  0.50000000  1.00000000  0.00000000  1.0
