# generated using pymatgen
data_TbPd
_symmetry_space_group_name_H-M   'P 1'
_cell_length_a   4.49109300
_cell_length_b   6.97792800
_cell_length_c   7.68075000
_cell_angle_alpha   90.00000000
_cell_angle_beta   90.00000000
_cell_angle_gamma   90.00000000
_symmetry_Int_Tables_number   1
_chemical_formula_structural   TbPd
_chemical_formula_sum   'Tb4 Pd4'
_cell_volume   240.70336510
_cell_formula_units_Z   4
loop_
 _symmetry_equiv_pos_site_id
 _symmetry_equiv_pos_as_xyz
  1  'x, y, z'
loop_
 _atom_site_type_symbol
 _atom_site_label
 _atom_site_symmetry_multiplicity
 _atom_site_fract_x
 _atom_site_fract_y
 _atom_site_fract_z
 _atom_site_occupancy
  Tb  Tb0  1  0.25000000  0.48270500  0.19816300  1.0
  Tb  Tb1  1  0.75000000  0.51729500  0.80183700  1.0
  Tb  Tb2  1  0.25000000  0.98270500  0.30183700  1.0
  Tb  Tb3  1  0.75000000  0.01729500  0.69816300  1.0
  Pd  Pd4  1  0.75000000  0.78091000  0.09637700  1.0
  Pd  Pd5  1  0.25000000  0.21909000  0.90362300  1.0
  Pd  Pd6  1  0.75000000  0.28091000  0.40362300  1.0
  Pd  Pd7  1  0.25000000  0.71909000  0.59637700  1.0
