# generated using pymatgen
data_Fe12Pb
_symmetry_space_group_name_H-M   'P 1'
_cell_length_a   6.01766486
_cell_length_b   6.01766486
_cell_length_c   23.30012600
_cell_angle_alpha   90.00000000
_cell_angle_beta   90.00000000
_cell_angle_gamma   119.95033139
_symmetry_Int_Tables_number   1
_chemical_formula_structural   Fe12Pb
_chemical_formula_sum   'Fe24 Pb2'
_cell_volume   731.07517951
_cell_formula_units_Z   2
loop_
 _symmetry_equiv_pos_site_id
 _symmetry_equiv_pos_as_xyz
  1  'x, y, z'
loop_
 _atom_site_type_symbol
 _atom_site_label
 _atom_site_symmetry_multiplicity
 _atom_site_fract_x
 _atom_site_fract_y
 _atom_site_fract_z
 _atom_site_occupancy
  Fe  Fe0  1  0.00000000  0.00000000  0.00000000  1.0
  Fe  Fe1  1  0.00000000  0.00000000  0.50000000  1.0
  Fe  Fe2  1  0.99955800  0.00044200  0.25000000  1.0
  Fe  Fe3  1  0.00044200  0.99955800  0.75000000  1.0
  Fe  Fe4  1  0.33333333  0.66666667  0.02789500  1.0
  Fe  Fe5  1  0.66666667  0.33333333  0.97210500  1.0
  Fe  Fe6  1  0.66666667  0.33333333  0.52789500  1.0
  Fe  Fe7  1  0.33333333  0.66666667  0.47210500  1.0
  Fe  Fe8  1  0.33329700  0.66666667  0.19087700  1.0
  Fe  Fe9  1  0.66666667  0.33329700  0.80912300  1.0
  Fe  Fe10  1  0.66666667  0.33329700  0.69087700  1.0
  Fe  Fe11  1  0.33329700  0.66666667  0.30912300  1.0
  Fe  Fe12  1  0.16760600  0.33568700  0.89033600  1.0
  Fe  Fe13  1  0.16777100  0.83222900  0.89029700  1.0
  Fe  Fe14  1  0.66431300  0.83239400  0.89033600  1.0
  Fe  Fe15  1  0.83239400  0.66431300  0.10966400  1.0
  Fe  Fe16  1  0.83222900  0.16777100  0.10970300  1.0
  Fe  Fe17  1  0.33568700  0.16760600  0.10966400  1.0
  Fe  Fe18  1  0.83239400  0.66431300  0.39033600  1.0
  Fe  Fe19  1  0.83222900  0.16777100  0.39029700  1.0
  Fe  Fe20  1  0.33568700  0.16760600  0.39033600  1.0
  Fe  Fe21  1  0.16760600  0.33568700  0.60966400  1.0
  Fe  Fe22  1  0.16777100  0.83222900  0.60970300  1.0
  Fe  Fe23  1  0.66431300  0.83239400  0.60966400  1.0
  Pb  Pb24  1  0.33682200  0.66317800  0.75000000  1.0
  Pb  Pb25  1  0.66317800  0.33682200  0.25000000  1.0
