# generated using pymatgen
data_Dy
_symmetry_space_group_name_H-M   'P 1'
_cell_length_a   4.32651400
_cell_length_b   9.50215911
_cell_length_c   15.19275400
_cell_angle_alpha   90.00000000
_cell_angle_beta   90.00000000
_cell_angle_gamma   103.15931707
_symmetry_Int_Tables_number   1
_chemical_formula_structural   Dy
_chemical_formula_sum   Dy8
_cell_volume   608.19141288
_cell_formula_units_Z   8
loop_
 _symmetry_equiv_pos_site_id
 _symmetry_equiv_pos_as_xyz
  1  'x, y, z'
loop_
 _atom_site_type_symbol
 _atom_site_label
 _atom_site_symmetry_multiplicity
 _atom_site_fract_x
 _atom_site_fract_y
 _atom_site_fract_z
 _atom_site_occupancy
  Dy  Dy0  1  0.98058800  0.96117600  0.23700700  1.0
  Dy  Dy1  1  0.01941200  0.03882400  0.73700700  1.0
  Dy  Dy2  1  0.82441000  0.64882000  0.68125700  1.0
  Dy  Dy3  1  0.17559000  0.35118000  0.18125700  1.0
  Dy  Dy4  1  0.83252500  0.66505000  0.04054600  1.0
  Dy  Dy5  1  0.16747500  0.33495000  0.54054600  1.0
  Dy  Dy6  1  0.96726700  0.93453400  0.49952400  1.0
  Dy  Dy7  1  0.03273300  0.06546600  0.99952400  1.0
