# generated using pymatgen
data_GdNi
_symmetry_space_group_name_H-M   'P 1'
_cell_length_a   3.83951100
_cell_length_b   7.09501703
_cell_length_c   7.09501795
_cell_angle_alpha   119.99017636
_cell_angle_beta   90.00000000
_cell_angle_gamma   90.00000000
_symmetry_Int_Tables_number   1
_chemical_formula_structural   GdNi
_chemical_formula_sum   'Gd3 Ni3'
_cell_volume   167.40039192
_cell_formula_units_Z   3
loop_
 _symmetry_equiv_pos_site_id
 _symmetry_equiv_pos_as_xyz
  1  'x, y, z'
loop_
 _atom_site_type_symbol
 _atom_site_label
 _atom_site_symmetry_multiplicity
 _atom_site_fract_x
 _atom_site_fract_y
 _atom_site_fract_z
 _atom_site_occupancy
  Gd  Gd0  1  0.50000000  0.41943700  0.41943700  1.0
  Gd  Gd1  1  0.50000000  0.58071600  0.99974100  1.0
  Gd  Gd2  1  0.50000000  0.99974200  0.58071700  1.0
  Ni  Ni3  1  0.50000000  0.99930700  0.99930700  1.0
  Ni  Ni4  1  1.00000000  0.66791000  0.33281000  1.0
  Ni  Ni5  1  0.00000000  0.33281000  0.66791000  1.0
