# generated using pymatgen
data_Tl
_symmetry_space_group_name_H-M   'P 1'
_cell_length_a   7.79138500
_cell_length_b   7.79138500
_cell_length_c   16.05960229
_cell_angle_alpha   83.28614062
_cell_angle_beta   83.28614062
_cell_angle_gamma   89.80882128
_symmetry_Int_Tables_number   1
_chemical_formula_structural   Tl
_chemical_formula_sum   Tl8
_cell_volume   961.53109926
_cell_formula_units_Z   8
loop_
 _symmetry_equiv_pos_site_id
 _symmetry_equiv_pos_as_xyz
  1  'x, y, z'
loop_
 _atom_site_type_symbol
 _atom_site_label
 _atom_site_symmetry_multiplicity
 _atom_site_fract_x
 _atom_site_fract_y
 _atom_site_fract_z
 _atom_site_occupancy
  Tl  Tl0  1  0.82714500  0.65733000  0.88312900  1.0
  Tl  Tl1  1  0.34267000  0.17285500  0.61687100  1.0
  Tl  Tl2  1  0.17285500  0.34267000  0.11687100  1.0
  Tl  Tl3  1  0.65733000  0.82714500  0.38312900  1.0
  Tl  Tl4  1  0.84485000  0.28306300  0.60330000  1.0
  Tl  Tl5  1  0.71693700  0.15515000  0.89670000  1.0
  Tl  Tl6  1  0.15515000  0.71693700  0.39670000  1.0
  Tl  Tl7  1  0.28306300  0.84485000  0.10330000  1.0
