# generated using pymatgen
data_Cu
_symmetry_space_group_name_H-M   'P 1'
_cell_length_a   3.65127000
_cell_length_b   4.13628300
_cell_length_c   10.08905500
_cell_angle_alpha   90.00000000
_cell_angle_beta   90.00000000
_cell_angle_gamma   90.00000000
_symmetry_Int_Tables_number   1
_chemical_formula_structural   Cu
_chemical_formula_sum   Cu4
_cell_volume   152.37183000
_cell_formula_units_Z   4
loop_
 _symmetry_equiv_pos_site_id
 _symmetry_equiv_pos_as_xyz
  1  'x, y, z'
loop_
 _atom_site_type_symbol
 _atom_site_label
 _atom_site_symmetry_multiplicity
 _atom_site_fract_x
 _atom_site_fract_y
 _atom_site_fract_z
 _atom_site_occupancy
  Cu  Cu0  1  0.12527900  0.00000000  0.66370300  1.0
  Cu  Cu1  1  0.12527900  0.00000000  0.33629700  1.0
  Cu  Cu2  1  0.87472100  0.50000000  0.83629700  1.0
  Cu  Cu3  1  0.87472100  0.50000000  0.16370300  1.0
