# generated using pymatgen
data_Mo
_symmetry_space_group_name_H-M   'P 1'
_cell_length_a   6.48817800
_cell_length_b   12.35762500
_cell_length_c   18.26761400
_cell_angle_alpha   90.00000000
_cell_angle_beta   90.00000000
_cell_angle_gamma   90.00000000
_symmetry_Int_Tables_number   1
_chemical_formula_structural   Mo
_chemical_formula_sum   Mo8
_cell_volume   1464.66935308
_cell_formula_units_Z   8
loop_
 _symmetry_equiv_pos_site_id
 _symmetry_equiv_pos_as_xyz
  1  'x, y, z'
loop_
 _atom_site_type_symbol
 _atom_site_label
 _atom_site_symmetry_multiplicity
 _atom_site_fract_x
 _atom_site_fract_y
 _atom_site_fract_z
 _atom_site_occupancy
  Mo  Mo0  1  0.90989400  0.87548000  0.85654500  1.0
  Mo  Mo1  1  0.59010600  0.37548100  0.85654500  1.0
  Mo  Mo2  1  0.40989400  0.62452000  0.14345500  1.0
  Mo  Mo3  1  0.09010600  0.12452000  0.14345500  1.0
  Mo  Mo4  1  0.09010600  0.12452000  0.35654500  1.0
  Mo  Mo5  1  0.59010600  0.37548100  0.64345500  1.0
  Mo  Mo6  1  0.90989400  0.87548000  0.64345500  1.0
  Mo  Mo7  1  0.40989400  0.62452000  0.35654500  1.0
