# generated using pymatgen
data_Mn
_symmetry_space_group_name_H-M   'P 1'
_cell_length_a   5.53370083
_cell_length_b   6.97161181
_cell_length_c   6.97160000
_cell_angle_alpha   83.52073543
_cell_angle_beta   79.30370881
_cell_angle_gamma   79.30348216
_symmetry_Int_Tables_number   1
_chemical_formula_structural   Mn
_chemical_formula_sum   Mn2
_cell_volume   258.83337753
_cell_formula_units_Z   2
loop_
 _symmetry_equiv_pos_site_id
 _symmetry_equiv_pos_as_xyz
  1  'x, y, z'
loop_
 _atom_site_type_symbol
 _atom_site_label
 _atom_site_symmetry_multiplicity
 _atom_site_fract_x
 _atom_site_fract_y
 _atom_site_fract_z
 _atom_site_occupancy
  Mn  Mn0  1  0.25011500  0.09215200  0.90782200  1.0
  Mn  Mn1  1  0.75000800  0.90782000  0.09218000  1.0
