# generated using pymatgen
data_NdNi
_symmetry_space_group_name_H-M   'P 1'
_cell_length_a   4.10099000
_cell_length_b   4.10099000
_cell_length_c   7.53460345
_cell_angle_alpha   105.79187049
_cell_angle_beta   105.79187048
_cell_angle_gamma   90.00000002
_symmetry_Int_Tables_number   1
_chemical_formula_structural   NdNi
_chemical_formula_sum   'Nd2 Ni2'
_cell_volume   116.95691604
_cell_formula_units_Z   2
loop_
 _symmetry_equiv_pos_site_id
 _symmetry_equiv_pos_as_xyz
  1  'x, y, z'
loop_
 _atom_site_type_symbol
 _atom_site_label
 _atom_site_symmetry_multiplicity
 _atom_site_fract_x
 _atom_site_fract_y
 _atom_site_fract_z
 _atom_site_occupancy
  Nd  Nd0  1  0.58039600  0.58039600  0.16079200  1.0
  Nd  Nd1  1  0.33039600  0.83039600  0.66079200  1.0
  Ni  Ni2  1  0.16760100  0.16760100  0.33520200  1.0
  Ni  Ni3  1  0.91760100  0.41760100  0.83520200  1.0
