# generated using pymatgen
data_Ho3W2
_symmetry_space_group_name_H-M   'P 1'
_cell_length_a   11.05877200
_cell_length_b   11.05877244
_cell_length_c   17.59348600
_cell_angle_alpha   90.00000000
_cell_angle_beta   90.00000000
_cell_angle_gamma   119.99999867
_symmetry_Int_Tables_number   1
_chemical_formula_structural   Ho3W2
_chemical_formula_sum   'Ho12 W8'
_cell_volume   1863.35825994
_cell_formula_units_Z   4
loop_
 _symmetry_equiv_pos_site_id
 _symmetry_equiv_pos_as_xyz
  1  'x, y, z'
loop_
 _atom_site_type_symbol
 _atom_site_label
 _atom_site_symmetry_multiplicity
 _atom_site_fract_x
 _atom_site_fract_y
 _atom_site_fract_z
 _atom_site_occupancy
  Ho  Ho0  1  0.53149300  1.00000000  0.09573100  1.0
  Ho  Ho1  1  0.46850700  0.46850700  0.09573100  1.0
  Ho  Ho2  1  1.00000000  0.53149300  0.09573100  1.0
  Ho  Ho3  1  0.46850700  1.00000000  0.90426900  1.0
  Ho  Ho4  1  0.53149300  0.53149300  0.90426900  1.0
  Ho  Ho5  1  0.00000000  0.46850700  0.90426900  1.0
  Ho  Ho6  1  0.46850700  1.00000000  0.59573100  1.0
  Ho  Ho7  1  0.53149300  0.53149300  0.59573100  1.0
  Ho  Ho8  1  0.00000000  0.46850700  0.59573100  1.0
  Ho  Ho9  1  0.53149300  1.00000000  0.40426900  1.0
  Ho  Ho10  1  0.46850700  0.46850700  0.40426900  1.0
  Ho  Ho11  1  1.00000000  0.53149300  0.40426900  1.0
  W  W12  1  0.72861500  1.00000000  0.25000000  1.0
  W  W13  1  0.27138500  0.27138500  0.25000000  1.0
  W  W14  1  1.00000000  0.72861500  0.25000000  1.0
  W  W15  1  0.27138500  1.00000000  0.75000000  1.0
  W  W16  1  0.72861500  0.72861500  0.75000000  1.0
  W  W17  1  0.00000000  0.27138500  0.75000000  1.0
  W  W18  1  0.00000000  0.00000000  0.00000000  1.0
  W  W19  1  0.00000000  0.00000000  0.50000000  1.0
