# generated using pymatgen
data_Tb7Rh3
_symmetry_space_group_name_H-M   'P 1'
_cell_length_a   6.21569000
_cell_length_b   9.85738800
_cell_length_c   9.85738850
_cell_angle_alpha   119.99999833
_cell_angle_beta   90.00000000
_cell_angle_gamma   90.00000000
_symmetry_Int_Tables_number   1
_chemical_formula_structural   Tb7Rh3
_chemical_formula_sum   'Tb14 Rh6'
_cell_volume   523.05060663
_cell_formula_units_Z   2
loop_
 _symmetry_equiv_pos_site_id
 _symmetry_equiv_pos_as_xyz
  1  'x, y, z'
loop_
 _atom_site_type_symbol
 _atom_site_label
 _atom_site_symmetry_multiplicity
 _atom_site_fract_x
 _atom_site_fract_y
 _atom_site_fract_z
 _atom_site_occupancy
  Tb  Tb0  1  0.54175400  0.66666667  0.33333333  1.0
  Tb  Tb1  1  0.04175400  0.33333333  0.66666667  1.0
  Tb  Tb2  1  0.74563700  0.87597600  0.75195200  1.0
  Tb  Tb3  1  0.74563700  0.24804800  0.12402400  1.0
  Tb  Tb4  1  0.74563700  0.87597600  0.12402400  1.0
  Tb  Tb5  1  0.24563700  0.12402400  0.24804800  1.0
  Tb  Tb6  1  0.24563700  0.75195200  0.87597600  1.0
  Tb  Tb7  1  0.24563700  0.12402400  0.87597600  1.0
  Tb  Tb8  1  0.55590700  0.45941000  0.91882000  1.0
  Tb  Tb9  1  0.55590700  0.08118000  0.54059000  1.0
  Tb  Tb10  1  0.55590700  0.45941000  0.54059000  1.0
  Tb  Tb11  1  0.05590700  0.54059000  0.08118000  1.0
  Tb  Tb12  1  0.05590700  0.91882000  0.45941000  1.0
  Tb  Tb13  1  0.05590700  0.54059000  0.45941000  1.0
  Rh  Rh14  1  0.82011100  0.19002500  0.38005000  1.0
  Rh  Rh15  1  0.82011100  0.61994900  0.80997400  1.0
  Rh  Rh16  1  0.82011100  0.19002500  0.80997400  1.0
  Rh  Rh17  1  0.32011100  0.80997500  0.61995000  1.0
  Rh  Rh18  1  0.32011100  0.38005100  0.19002600  1.0
  Rh  Rh19  1  0.32011100  0.80997500  0.19002600  1.0
