# generated using pymatgen
data_Ce2Pd3
_symmetry_space_group_name_H-M   'P 1'
_cell_length_a   6.03303200
_cell_length_b   8.30934063
_cell_length_c   8.30934063
_cell_angle_alpha   73.70152435
_cell_angle_beta   68.71378137
_cell_angle_gamma   68.71378137
_symmetry_Int_Tables_number   1
_chemical_formula_structural   Ce2Pd3
_chemical_formula_sum   'Ce4 Pd6'
_cell_volume   356.29984989
_cell_formula_units_Z   2
loop_
 _symmetry_equiv_pos_site_id
 _symmetry_equiv_pos_as_xyz
  1  'x, y, z'
loop_
 _atom_site_type_symbol
 _atom_site_label
 _atom_site_symmetry_multiplicity
 _atom_site_fract_x
 _atom_site_fract_y
 _atom_site_fract_z
 _atom_site_occupancy
  Ce  Ce0  1  0.37219400  0.89410000  0.36151200  1.0
  Ce  Ce1  1  0.62780600  0.10590000  0.63848800  1.0
  Ce  Ce2  1  0.87219300  0.36151200  0.89410100  1.0
  Ce  Ce3  1  0.12780700  0.63848800  0.10589900  1.0
  Pd  Pd4  1  0.75000000  0.50000000  0.50000000  1.0
  Pd  Pd5  1  0.25000000  0.50000000  0.50000000  1.0
  Pd  Pd6  1  0.13789700  0.97145600  0.75274900  1.0
  Pd  Pd7  1  0.86210300  0.02854400  0.24725100  1.0
  Pd  Pd8  1  0.63789800  0.75274800  0.97145600  1.0
  Pd  Pd9  1  0.36210200  0.24725200  0.02854400  1.0
