# generated using pymatgen
data_Mn2Mo3
_symmetry_space_group_name_H-M   'P 1'
_cell_length_a   5.90422800
_cell_length_b   5.90422849
_cell_length_c   10.44008800
_cell_angle_alpha   90.00000000
_cell_angle_beta   90.00000000
_cell_angle_gamma   119.99999727
_symmetry_Int_Tables_number   1
_chemical_formula_structural   Mn2Mo3
_chemical_formula_sum   'Mn4 Mo6'
_cell_volume   315.18176216
_cell_formula_units_Z   2
loop_
 _symmetry_equiv_pos_site_id
 _symmetry_equiv_pos_as_xyz
  1  'x, y, z'
loop_
 _atom_site_type_symbol
 _atom_site_label
 _atom_site_symmetry_multiplicity
 _atom_site_fract_x
 _atom_site_fract_y
 _atom_site_fract_z
 _atom_site_occupancy
  Mn  Mn0  1  0.66666667  0.33333333  0.04999700  1.0
  Mn  Mn1  1  0.33333333  0.66666667  0.54999700  1.0
  Mn  Mn2  1  0.66666667  0.33333333  0.48560200  1.0
  Mn  Mn3  1  0.33333333  0.66666667  0.98560200  1.0
  Mo  Mo4  1  0.85414100  0.70828200  0.75067700  1.0
  Mo  Mo5  1  0.70828200  0.85414100  0.25067700  1.0
  Mo  Mo6  1  0.14585900  0.85414100  0.25067700  1.0
  Mo  Mo7  1  0.85414100  0.14585900  0.75067700  1.0
  Mo  Mo8  1  0.29171800  0.14585900  0.75067700  1.0
  Mo  Mo9  1  0.14585900  0.29171800  0.25067700  1.0
