# generated using pymatgen
data_Co3Ru
_symmetry_space_group_name_H-M   'P 1'
_cell_length_a   4.07789600
_cell_length_b   5.11061200
_cell_length_c   5.11061216
_cell_angle_alpha   60.00000100
_cell_angle_beta   90.00000000
_cell_angle_gamma   90.00000000
_symmetry_Int_Tables_number   1
_chemical_formula_structural   Co3Ru
_chemical_formula_sum   'Co6 Ru2'
_cell_volume   92.23858170
_cell_formula_units_Z   2
loop_
 _symmetry_equiv_pos_site_id
 _symmetry_equiv_pos_as_xyz
  1  'x, y, z'
loop_
 _atom_site_type_symbol
 _atom_site_label
 _atom_site_symmetry_multiplicity
 _atom_site_fract_x
 _atom_site_fract_y
 _atom_site_fract_z
 _atom_site_occupancy
  Co  Co0  1  0.75000000  0.67297200  0.16351400  1.0
  Co  Co1  1  0.75000000  0.16351400  0.16351400  1.0
  Co  Co2  1  0.75000000  0.16351400  0.67297200  1.0
  Co  Co3  1  0.25000000  0.32702800  0.83648600  1.0
  Co  Co4  1  0.25000000  0.83648600  0.83648600  1.0
  Co  Co5  1  0.25000000  0.83648600  0.32702800  1.0
  Ru  Ru6  1  0.25000000  0.33333333  0.33333333  1.0
  Ru  Ru7  1  0.75000000  0.66666667  0.66666667  1.0
