# generated using pymatgen
data_Mn
_symmetry_space_group_name_H-M   'P 1'
_cell_length_a   5.09491200
_cell_length_b   5.09516139
_cell_length_c   5.67289680
_cell_angle_alpha   90.00126219
_cell_angle_beta   116.67904102
_cell_angle_gamma   119.99793521
_symmetry_Int_Tables_number   1
_chemical_formula_structural   Mn
_chemical_formula_sum   Mn2
_cell_volume   109.05838625
_cell_formula_units_Z   2
loop_
 _symmetry_equiv_pos_site_id
 _symmetry_equiv_pos_as_xyz
  1  'x, y, z'
loop_
 _atom_site_type_symbol
 _atom_site_label
 _atom_site_symmetry_multiplicity
 _atom_site_fract_x
 _atom_site_fract_y
 _atom_site_fract_z
 _atom_site_occupancy
  Mn  Mn0  1  0.27383800  0.63689500  0.91076200  1.0
  Mn  Mn1  1  0.72615500  0.36310200  0.08922600  1.0
