# generated using pymatgen
data_Tb2Ir3
_symmetry_space_group_name_H-M   'P 1'
_cell_length_a   5.84559200
_cell_length_b   8.15406364
_cell_length_c   8.15406364
_cell_angle_alpha   75.46828370
_cell_angle_beta   68.99517591
_cell_angle_gamma   68.99517590
_symmetry_Int_Tables_number   1
_chemical_formula_structural   Tb2Ir3
_chemical_formula_sum   'Tb4 Ir6'
_cell_volume   335.36970122
_cell_formula_units_Z   2
loop_
 _symmetry_equiv_pos_site_id
 _symmetry_equiv_pos_as_xyz
  1  'x, y, z'
loop_
 _atom_site_type_symbol
 _atom_site_label
 _atom_site_symmetry_multiplicity
 _atom_site_fract_x
 _atom_site_fract_y
 _atom_site_fract_z
 _atom_site_occupancy
  Tb  Tb0  1  0.63093300  0.13967800  0.59845600  1.0
  Tb  Tb1  1  0.36906700  0.86032200  0.40154400  1.0
  Tb  Tb2  1  0.86906700  0.40154400  0.86032200  1.0
  Tb  Tb3  1  0.13093300  0.59845600  0.13967800  1.0
  Ir  Ir4  1  0.25000000  0.00000000  0.00000000  1.0
  Ir  Ir5  1  0.75000000  1.00000000  0.00000000  1.0
  Ir  Ir6  1  0.86015300  0.75296500  0.52673000  1.0
  Ir  Ir7  1  0.13984700  0.24703500  0.47327000  1.0
  Ir  Ir8  1  0.63984800  0.47326900  0.24703500  1.0
  Ir  Ir9  1  0.36015200  0.52673100  0.75296500  1.0
