# generated using pymatgen
data_CrFe
_symmetry_space_group_name_H-M   'P 1'
_cell_length_a   5.10068278
_cell_length_b   5.10063200
_cell_length_c   5.46602896
_cell_angle_alpha   89.99857935
_cell_angle_beta   117.81223254
_cell_angle_gamma   120.00118775
_symmetry_Int_Tables_number   1
_chemical_formula_structural   CrFe
_chemical_formula_sum   'Cr2 Fe2'
_cell_volume   103.75352179
_cell_formula_units_Z   2
loop_
 _symmetry_equiv_pos_site_id
 _symmetry_equiv_pos_as_xyz
  1  'x, y, z'
loop_
 _atom_site_type_symbol
 _atom_site_label
 _atom_site_symmetry_multiplicity
 _atom_site_fract_x
 _atom_site_fract_y
 _atom_site_fract_z
 _atom_site_occupancy
  Cr  Cr0  1  0.69333700  0.34667100  0.04000500  1.0
  Cr  Cr1  1  0.30666200  0.65332600  0.95999500  1.0
  Fe  Fe2  1  0.28636800  0.14317600  0.42956400  1.0
  Fe  Fe3  1  0.71363200  0.85682200  0.57043600  1.0
