# generated using pymatgen
data_Fe
_symmetry_space_group_name_H-M   'P 1'
_cell_length_a   5.88561000
_cell_length_b   5.88560933
_cell_length_c   14.89682700
_cell_angle_alpha   90.00000000
_cell_angle_beta   90.00000000
_cell_angle_gamma   120.00000378
_symmetry_Int_Tables_number   1
_chemical_formula_structural   Fe
_chemical_formula_sum   Fe12
_cell_volume   446.89685875
_cell_formula_units_Z   12
loop_
 _symmetry_equiv_pos_site_id
 _symmetry_equiv_pos_as_xyz
  1  'x, y, z'
loop_
 _atom_site_type_symbol
 _atom_site_label
 _atom_site_symmetry_multiplicity
 _atom_site_fract_x
 _atom_site_fract_y
 _atom_site_fract_z
 _atom_site_occupancy
  Fe  Fe0  1  0.33333333  0.66666667  0.07253400  1.0
  Fe  Fe1  1  0.83427900  0.66855800  0.20688800  1.0
  Fe  Fe2  1  0.66666667  0.33333333  0.40826800  1.0
  Fe  Fe3  1  0.33144200  0.16572100  0.20688800  1.0
  Fe  Fe4  1  0.83427900  0.16572100  0.20688800  1.0
  Fe  Fe5  1  0.16560400  0.33120800  0.54806000  1.0
  Fe  Fe6  1  0.66879200  0.83439600  0.54806000  1.0
  Fe  Fe7  1  0.50117900  0.00235800  0.87123900  1.0
  Fe  Fe8  1  0.16560400  0.83439600  0.54806000  1.0
  Fe  Fe9  1  0.33333333  0.66666667  0.71209600  1.0
  Fe  Fe10  1  0.99764200  0.49882100  0.87123900  1.0
  Fe  Fe11  1  0.50117900  0.49882100  0.87123900  1.0
