# generated using pymatgen
data_NdCo
_symmetry_space_group_name_H-M   'P 1'
_cell_length_a   4.13392200
_cell_length_b   4.13392200
_cell_length_c   5.65043383
_cell_angle_alpha   111.45717634
_cell_angle_beta   111.45717634
_cell_angle_gamma   90.00000000
_symmetry_Int_Tables_number   1
_chemical_formula_structural   NdCo
_chemical_formula_sum   'Nd1 Co1'
_cell_volume   82.63657724
_cell_formula_units_Z   1
loop_
 _symmetry_equiv_pos_site_id
 _symmetry_equiv_pos_as_xyz
  1  'x, y, z'
loop_
 _atom_site_type_symbol
 _atom_site_label
 _atom_site_symmetry_multiplicity
 _atom_site_fract_x
 _atom_site_fract_y
 _atom_site_fract_z
 _atom_site_occupancy
  Nd  Nd0  1  0.00330200  0.00330200  0.00660400  1.0
  Co  Co1  1  0.66262100  0.66262100  0.32524200  1.0
