# generated using pymatgen
data_NdNi
_symmetry_space_group_name_H-M   'P 1'
_cell_length_a   3.86877000
_cell_length_b   7.50670900
_cell_length_c   7.50670900
_cell_angle_alpha   90.00000000
_cell_angle_beta   90.00000000
_cell_angle_gamma   90.00000000
_symmetry_Int_Tables_number   1
_chemical_formula_structural   NdNi
_chemical_formula_sum   'Nd4 Ni4'
_cell_volume   218.00782030
_cell_formula_units_Z   4
loop_
 _symmetry_equiv_pos_site_id
 _symmetry_equiv_pos_as_xyz
  1  'x, y, z'
loop_
 _atom_site_type_symbol
 _atom_site_label
 _atom_site_symmetry_multiplicity
 _atom_site_fract_x
 _atom_site_fract_y
 _atom_site_fract_z
 _atom_site_occupancy
  Nd  Nd0  1  0.50000000  0.32560300  0.82560300  1.0
  Nd  Nd1  1  0.50000000  0.82560300  0.67439700  1.0
  Nd  Nd2  1  0.50000000  0.17439700  0.32560300  1.0
  Nd  Nd3  1  0.50000000  0.67439700  0.17439700  1.0
  Ni  Ni4  1  0.00000000  0.11927200  0.61927200  1.0
  Ni  Ni5  1  1.00000000  0.61927200  0.88072800  1.0
  Ni  Ni6  1  0.00000000  0.88072800  0.38072800  1.0
  Ni  Ni7  1  0.00000000  0.38072800  0.11927200  1.0
