# generated using pymatgen
data_Tb
_symmetry_space_group_name_H-M   'P 1'
_cell_length_a   4.14472100
_cell_length_b   7.38217200
_cell_length_c   7.38217244
_cell_angle_alpha   119.99999801
_cell_angle_beta   90.00000000
_cell_angle_gamma   90.00000000
_symmetry_Int_Tables_number   1
_chemical_formula_structural   Tb
_chemical_formula_sum   Tb3
_cell_volume   195.61145665
_cell_formula_units_Z   3
loop_
 _symmetry_equiv_pos_site_id
 _symmetry_equiv_pos_as_xyz
  1  'x, y, z'
loop_
 _atom_site_type_symbol
 _atom_site_label
 _atom_site_symmetry_multiplicity
 _atom_site_fract_x
 _atom_site_fract_y
 _atom_site_fract_z
 _atom_site_occupancy
  Tb  Tb0  1  0.00000000  0.00000000  0.60375500  1.0
  Tb  Tb1  1  0.00000000  0.60375500  1.00000000  1.0
  Tb  Tb2  1  0.00000000  0.39624500  0.39624500  1.0
