# generated using pymatgen
data_FeMo
_symmetry_space_group_name_H-M   'P 1'
_cell_length_a   5.64449782
_cell_length_b   5.64450656
_cell_length_c   5.64499185
_cell_angle_alpha   91.24487256
_cell_angle_beta   119.28294813
_cell_angle_gamma   119.28186265
_symmetry_Int_Tables_number   1
_chemical_formula_structural   FeMo
_chemical_formula_sum   'Fe1 Mo1'
_cell_volume   128.52377083
_cell_formula_units_Z   1
loop_
 _symmetry_equiv_pos_site_id
 _symmetry_equiv_pos_as_xyz
  1  'x, y, z'
loop_
 _atom_site_type_symbol
 _atom_site_label
 _atom_site_symmetry_multiplicity
 _atom_site_fract_x
 _atom_site_fract_y
 _atom_site_fract_z
 _atom_site_occupancy
  Fe  Fe0  1  0.00133200  0.99994750  0.00127900  1.0
  Mo  Mo1  1  0.99934900  0.49999400  0.49934300  1.0
