# generated using pymatgen
data_Yb
_symmetry_space_group_name_H-M   'P 1'
_cell_length_a   7.00383400
_cell_length_b   7.15884025
_cell_length_c   7.00383400
_cell_angle_alpha   60.71370852
_cell_angle_beta   90.00000000
_cell_angle_gamma   119.28629148
_symmetry_Int_Tables_number   1
_chemical_formula_structural   Yb
_chemical_formula_sum   Yb4
_cell_volume   253.57554865
_cell_formula_units_Z   4
loop_
 _symmetry_equiv_pos_site_id
 _symmetry_equiv_pos_as_xyz
  1  'x, y, z'
loop_
 _atom_site_type_symbol
 _atom_site_label
 _atom_site_symmetry_multiplicity
 _atom_site_fract_x
 _atom_site_fract_y
 _atom_site_fract_z
 _atom_site_occupancy
  Yb  Yb0  1  0.87500000  0.25000000  0.37500000  1.0
  Yb  Yb1  1  0.37500000  0.75000000  0.37500000  1.0
  Yb  Yb2  1  0.37500000  0.75000000  0.87500000  1.0
  Yb  Yb3  1  0.37500000  0.25000000  0.37500000  1.0
