# generated using pymatgen
data_Ti8(MnRu6)3
_symmetry_space_group_name_H-M   'P 1'
_cell_length_a   2.96924600
_cell_length_b   17.60245448
_cell_length_c   17.60245448
_cell_angle_alpha   89.67379958
_cell_angle_beta   90.00000000
_cell_angle_gamma   90.00000000
_symmetry_Int_Tables_number   1
_chemical_formula_structural   Ti8(MnRu6)3
_chemical_formula_sum   'Ti16 Mn6 Ru36'
_cell_volume   919.99528460
_cell_formula_units_Z   2
loop_
 _symmetry_equiv_pos_site_id
 _symmetry_equiv_pos_as_xyz
  1  'x, y, z'
loop_
 _atom_site_type_symbol
 _atom_site_label
 _atom_site_symmetry_multiplicity
 _atom_site_fract_x
 _atom_site_fract_y
 _atom_site_fract_z
 _atom_site_occupancy
  Ti  Ti0  1  1.00000000  0.69813700  0.69813700  1.0
  Ti  Ti1  1  1.00000000  0.30186300  0.30186300  1.0
  Ti  Ti2  1  0.00000000  0.80103200  0.19896800  1.0
  Ti  Ti3  1  1.00000000  0.19896800  0.80103200  1.0
  Ti  Ti4  1  1.00000000  0.81455000  0.46569300  1.0
  Ti  Ti5  1  1.00000000  0.18545000  0.53430700  1.0
  Ti  Ti6  1  0.00000000  0.68689500  0.96501300  1.0
  Ti  Ti7  1  1.00000000  0.31310500  0.03498700  1.0
  Ti  Ti8  1  0.00000000  0.96501300  0.68689500  1.0
  Ti  Ti9  1  1.00000000  0.03498700  0.31310500  1.0
  Ti  Ti10  1  1.00000000  0.46569300  0.81455000  1.0
  Ti  Ti11  1  1.00000000  0.53430700  0.18545000  1.0
  Ti  Ti12  1  0.00000000  0.82849900  0.82849900  1.0
  Ti  Ti13  1  0.00000000  0.17150100  0.17150100  1.0
  Ti  Ti14  1  1.00000000  0.00000000  0.50000000  1.0
  Ti  Ti15  1  1.00000000  0.50000000  0.00000000  1.0
  Mn  Mn16  1  1.00000000  0.54720300  0.45279700  1.0
  Mn  Mn17  1  1.00000000  0.45279700  0.54720300  1.0
  Mn  Mn18  1  1.00000000  0.95402200  0.95402200  1.0
  Mn  Mn19  1  1.00000000  0.04597800  0.04597800  1.0
  Mn  Mn20  1  1.00000000  0.67124900  0.32875100  1.0
  Mn  Mn21  1  1.00000000  0.32875100  0.67124900  1.0
  Ru  Ru22  1  0.50000000  0.57975100  0.57975100  1.0
  Ru  Ru23  1  0.50000000  0.42024900  0.42024900  1.0
  Ru  Ru24  1  0.50000000  0.91913800  0.08086200  1.0
  Ru  Ru25  1  0.50000000  0.08086200  0.91913800  1.0
  Ru  Ru26  1  0.50000000  0.90235600  0.56907200  1.0
  Ru  Ru27  1  0.50000000  0.09764400  0.43092800  1.0
  Ru  Ru28  1  0.50000000  0.59850400  0.07037500  1.0
  Ru  Ru29  1  0.50000000  0.40149600  0.92962500  1.0
  Ru  Ru30  1  0.50000000  0.07037500  0.59850400  1.0
  Ru  Ru31  1  0.50000000  0.92962500  0.40149600  1.0
  Ru  Ru32  1  0.50000000  0.56907200  0.90235600  1.0
  Ru  Ru33  1  0.50000000  0.43092800  0.09764400  1.0
  Ru  Ru34  1  0.50000000  0.66805000  0.44727000  1.0
  Ru  Ru35  1  0.50000000  0.33195000  0.55273000  1.0
  Ru  Ru36  1  0.50000000  0.83242100  0.94907000  1.0
  Ru  Ru37  1  0.50000000  0.16757900  0.05093000  1.0
  Ru  Ru38  1  0.50000000  0.94907000  0.83242100  1.0
  Ru  Ru39  1  0.50000000  0.05093000  0.16757900  1.0
  Ru  Ru40  1  0.50000000  0.44727000  0.66805000  1.0
  Ru  Ru41  1  0.50000000  0.55273000  0.33195000  1.0
  Ru  Ru42  1  0.50000000  0.74487100  0.58024600  1.0
  Ru  Ru43  1  0.50000000  0.25512900  0.41975400  1.0
  Ru  Ru44  1  0.50000000  0.75492100  0.08355100  1.0
  Ru  Ru45  1  0.50000000  0.24507900  0.91644900  1.0
  Ru  Ru46  1  0.50000000  0.08355100  0.75492100  1.0
  Ru  Ru47  1  0.50000000  0.91644900  0.24507900  1.0
  Ru  Ru48  1  0.50000000  0.58024600  0.74487100  1.0
  Ru  Ru49  1  0.50000000  0.41975400  0.25512900  1.0
  Ru  Ru50  1  0.50000000  0.83243100  0.71038500  1.0
  Ru  Ru51  1  0.50000000  0.16756900  0.28961500  1.0
  Ru  Ru52  1  0.50000000  0.66620600  0.21403900  1.0
  Ru  Ru53  1  0.50000000  0.33379400  0.78596100  1.0
  Ru  Ru54  1  0.50000000  0.21403900  0.66620600  1.0
  Ru  Ru55  1  0.50000000  0.78596100  0.33379400  1.0
  Ru  Ru56  1  0.50000000  0.71038500  0.83243100  1.0
  Ru  Ru57  1  0.50000000  0.28961500  0.16756900  1.0
