# generated using pymatgen
data_Er3Mo2
_symmetry_space_group_name_H-M   'P 1'
_cell_length_a   11.04263000
_cell_length_b   11.04262991
_cell_length_c   17.61554300
_cell_angle_alpha   90.00000000
_cell_angle_beta   90.00000000
_cell_angle_gamma   120.00000027
_symmetry_Int_Tables_number   1
_chemical_formula_structural   Er3Mo2
_chemical_formula_sum   'Er12 Mo8'
_cell_volume   1860.25167085
_cell_formula_units_Z   4
loop_
 _symmetry_equiv_pos_site_id
 _symmetry_equiv_pos_as_xyz
  1  'x, y, z'
loop_
 _atom_site_type_symbol
 _atom_site_label
 _atom_site_symmetry_multiplicity
 _atom_site_fract_x
 _atom_site_fract_y
 _atom_site_fract_z
 _atom_site_occupancy
  Er  Er0  1  0.53101800  0.00000000  0.09527600  1.0
  Er  Er1  1  0.46898200  0.46898200  0.09527600  1.0
  Er  Er2  1  1.00000000  0.53101800  0.09527600  1.0
  Er  Er3  1  0.46898200  1.00000000  0.90472400  1.0
  Er  Er4  1  0.53101800  0.53101800  0.90472400  1.0
  Er  Er5  1  0.00000000  0.46898200  0.90472400  1.0
  Er  Er6  1  0.46898200  1.00000000  0.59527600  1.0
  Er  Er7  1  0.53101800  0.53101800  0.59527600  1.0
  Er  Er8  1  0.00000000  0.46898200  0.59527600  1.0
  Er  Er9  1  0.53101800  0.00000000  0.40472400  1.0
  Er  Er10  1  0.46898200  0.46898200  0.40472400  1.0
  Er  Er11  1  1.00000000  0.53101800  0.40472400  1.0
  Mo  Mo12  1  0.72951300  1.00000000  0.25000000  1.0
  Mo  Mo13  1  0.27048700  0.27048700  0.25000000  1.0
  Mo  Mo14  1  0.00000000  0.72951300  0.25000000  1.0
  Mo  Mo15  1  0.27048700  0.00000000  0.75000000  1.0
  Mo  Mo16  1  0.72951300  0.72951300  0.75000000  1.0
  Mo  Mo17  1  1.00000000  0.27048700  0.75000000  1.0
  Mo  Mo18  1  0.00000000  0.00000000  0.00000000  1.0
  Mo  Mo19  1  0.00000000  0.00000000  0.50000000  1.0
