# generated using pymatgen
data_Co
_symmetry_space_group_name_H-M   'P 1'
_cell_length_a   5.30407000
_cell_length_b   7.37854788
_cell_length_c   11.41856800
_cell_angle_alpha   90.00000000
_cell_angle_beta   90.00000000
_cell_angle_gamma   107.94498853
_symmetry_Int_Tables_number   1
_chemical_formula_structural   Co
_chemical_formula_sum   Co4
_cell_volume   425.14138079
_cell_formula_units_Z   4
loop_
 _symmetry_equiv_pos_site_id
 _symmetry_equiv_pos_as_xyz
  1  'x, y, z'
loop_
 _atom_site_type_symbol
 _atom_site_label
 _atom_site_symmetry_multiplicity
 _atom_site_fract_x
 _atom_site_fract_y
 _atom_site_fract_z
 _atom_site_occupancy
  Co  Co0  1  0.12570700  0.68256100  0.58195000  1.0
  Co  Co1  1  0.37429300  0.81743900  0.08195000  1.0
  Co  Co2  1  0.87429300  0.31743900  0.41805000  1.0
  Co  Co3  1  0.62570700  0.18256100  0.91805000  1.0
