# generated using pymatgen
data_V
_symmetry_space_group_name_H-M   'P 1'
_cell_length_a   7.10910000
_cell_length_b   7.46608322
_cell_length_c   9.02945391
_cell_angle_alpha   103.40797504
_cell_angle_beta   101.80939530
_cell_angle_gamma   116.58041959
_symmetry_Int_Tables_number   1
_chemical_formula_structural   V
_chemical_formula_sum   V6
_cell_volume   389.84059797
_cell_formula_units_Z   6
loop_
 _symmetry_equiv_pos_site_id
 _symmetry_equiv_pos_as_xyz
  1  'x, y, z'
loop_
 _atom_site_type_symbol
 _atom_site_label
 _atom_site_symmetry_multiplicity
 _atom_site_fract_x
 _atom_site_fract_y
 _atom_site_fract_z
 _atom_site_occupancy
  V  V0  1  0.09020100  0.34324600  0.68292200  1.0
  V  V1  1  0.66700700  0.91806000  0.84122900  1.0
  V  V2  1  0.49654400  0.52600200  0.49123000  1.0
  V  V3  1  0.33169000  0.08251900  0.15844900  1.0
  V  V4  1  0.50443500  0.03527000  0.50914600  1.0
  V  V5  1  0.91063000  0.65793800  0.31715500  1.0
