# generated using pymatgen
data_Fe
_symmetry_space_group_name_H-M   'P 1'
_cell_length_a   4.49481600
_cell_length_b   6.82578400
_cell_length_c   6.82578370
_cell_angle_alpha   120.00000145
_cell_angle_beta   90.00000000
_cell_angle_gamma   90.00000000
_symmetry_Int_Tables_number   1
_chemical_formula_structural   Fe
_chemical_formula_sum   Fe14
_cell_volume   181.36254705
_cell_formula_units_Z   14
loop_
 _symmetry_equiv_pos_site_id
 _symmetry_equiv_pos_as_xyz
  1  'x, y, z'
loop_
 _atom_site_type_symbol
 _atom_site_label
 _atom_site_symmetry_multiplicity
 _atom_site_fract_x
 _atom_site_fract_y
 _atom_site_fract_z
 _atom_site_occupancy
  Fe  Fe0  1  0.68418000  0.90869600  0.45434800  1.0
  Fe  Fe1  1  0.18418000  0.45434800  0.90869600  1.0
  Fe  Fe2  1  0.01031600  0.87759400  0.75518800  1.0
  Fe  Fe3  1  0.51031600  0.75518900  0.87759500  1.0
  Fe  Fe4  1  0.51031600  0.12240600  0.87759500  1.0
  Fe  Fe5  1  0.01031600  0.87759400  0.12240500  1.0
  Fe  Fe6  1  0.01031600  0.24481100  0.12240500  1.0
  Fe  Fe7  1  0.51031600  0.12240600  0.24481200  1.0
  Fe  Fe8  1  0.68418000  0.54565200  0.45434800  1.0
  Fe  Fe9  1  0.18418000  0.45434800  0.54565200  1.0
  Fe  Fe10  1  0.18418000  0.09130400  0.54565200  1.0
  Fe  Fe11  1  0.68418000  0.54565200  0.09130400  1.0
  Fe  Fe12  1  0.69211100  0.33333333  0.66666667  1.0
  Fe  Fe13  1  0.19211100  0.66666667  0.33333333  1.0
