# generated using pymatgen
data_Nd3Nb
_symmetry_space_group_name_H-M   'P 1'
_cell_length_a   6.68183659
_cell_length_b   6.68183659
_cell_length_c   7.74611100
_cell_angle_alpha   90.00000000
_cell_angle_beta   90.00000000
_cell_angle_gamma   111.04629313
_symmetry_Int_Tables_number   1
_chemical_formula_structural   Nd3Nb
_chemical_formula_sum   'Nd6 Nb2'
_cell_volume   322.76935586
_cell_formula_units_Z   2
loop_
 _symmetry_equiv_pos_site_id
 _symmetry_equiv_pos_as_xyz
  1  'x, y, z'
loop_
 _atom_site_type_symbol
 _atom_site_label
 _atom_site_symmetry_multiplicity
 _atom_site_fract_x
 _atom_site_fract_y
 _atom_site_fract_z
 _atom_site_occupancy
  Nd  Nd0  1  0.47894700  0.93118600  0.25000000  1.0
  Nd  Nd1  1  0.52105300  0.06881400  0.75000000  1.0
  Nd  Nd2  1  0.00000000  0.00000000  0.50000000  1.0
  Nd  Nd3  1  0.00000000  0.00000000  0.00000000  1.0
  Nd  Nd4  1  0.06881400  0.52105300  0.75000000  1.0
  Nd  Nd5  1  0.93118600  0.47894700  0.25000000  1.0
  Nb  Nb6  1  0.50000000  0.50000000  0.00000000  1.0
  Nb  Nb7  1  0.50000000  0.50000000  0.50000000  1.0
