# generated using pymatgen
data_Re
_symmetry_space_group_name_H-M   'P 1'
_cell_length_a   11.70476186
_cell_length_b   11.70476186
_cell_length_c   11.70476186
_cell_angle_alpha   89.36489000
_cell_angle_beta   60.36600099
_cell_angle_gamma   119.63399901
_symmetry_Int_Tables_number   1
_chemical_formula_structural   Re
_chemical_formula_sum   Re8
_cell_volume   1140.09174287
_cell_formula_units_Z   8
loop_
 _symmetry_equiv_pos_site_id
 _symmetry_equiv_pos_as_xyz
  1  'x, y, z'
loop_
 _atom_site_type_symbol
 _atom_site_label
 _atom_site_symmetry_multiplicity
 _atom_site_fract_x
 _atom_site_fract_y
 _atom_site_fract_z
 _atom_site_occupancy
  Re  Re0  1  0.25000000  0.62500000  0.62500000  1.0
  Re  Re1  1  0.75000000  0.62500000  0.62500000  1.0
  Re  Re2  1  0.25000000  0.62500000  0.12500000  1.0
  Re  Re3  1  0.75000000  0.12500000  0.62500000  1.0
  Re  Re4  1  0.25000000  0.12500000  0.12500000  1.0
  Re  Re5  1  0.75000000  0.12500000  0.12500000  1.0
  Re  Re6  1  0.25000000  0.12500000  0.62500000  1.0
  Re  Re7  1  0.75000000  0.62500000  0.12500000  1.0
