# generated using pymatgen
data_Tb2Fe17
_symmetry_space_group_name_H-M   'P 1'
_cell_length_a   6.40921247
_cell_length_b   6.40921247
_cell_length_c   6.40921179
_cell_angle_alpha   82.84433885
_cell_angle_beta   82.84433885
_cell_angle_gamma   82.84433529
_symmetry_Int_Tables_number   1
_chemical_formula_structural   Tb2Fe17
_chemical_formula_sum   'Tb2 Fe17'
_cell_volume   257.59748457
_cell_formula_units_Z   1
loop_
 _symmetry_equiv_pos_site_id
 _symmetry_equiv_pos_as_xyz
  1  'x, y, z'
loop_
 _atom_site_type_symbol
 _atom_site_label
 _atom_site_symmetry_multiplicity
 _atom_site_fract_x
 _atom_site_fract_y
 _atom_site_fract_z
 _atom_site_occupancy
  Tb  Tb0  1  0.34110500  0.34110500  0.34110500  1.0
  Tb  Tb1  1  0.65889500  0.65889500  0.65889500  1.0
  Fe  Fe2  1  0.00000000  0.00000000  0.50000000  1.0
  Fe  Fe3  1  0.00000000  0.50000000  0.00000000  1.0
  Fe  Fe4  1  0.50000000  1.00000000  1.00000000  1.0
  Fe  Fe5  1  0.70525800  0.29474200  0.00000000  1.0
  Fe  Fe6  1  0.29474200  1.00000000  0.70525800  1.0
  Fe  Fe7  1  0.00000000  0.70525800  0.29474200  1.0
  Fe  Fe8  1  0.70525800  0.00000000  0.29474200  1.0
  Fe  Fe9  1  0.00000000  0.29474200  0.70525800  1.0
  Fe  Fe10  1  0.29474200  0.70525800  1.00000000  1.0
  Fe  Fe11  1  0.65673100  0.65673100  0.15625000  1.0
  Fe  Fe12  1  0.65673100  0.15625000  0.65673100  1.0
  Fe  Fe13  1  0.15625000  0.65673100  0.65673100  1.0
  Fe  Fe14  1  0.34326900  0.34326900  0.84375000  1.0
  Fe  Fe15  1  0.34326900  0.84375000  0.34326900  1.0
  Fe  Fe16  1  0.84375000  0.34326900  0.34326900  1.0
  Fe  Fe17  1  0.09682900  0.09682900  0.09682900  1.0
  Fe  Fe18  1  0.90317100  0.90317100  0.90317100  1.0
