# generated using pymatgen
data_Mn
_symmetry_space_group_name_H-M   'P 1'
_cell_length_a   5.12001200
_cell_length_b   6.38680500
_cell_length_c   10.88922900
_cell_angle_alpha   89.99992728
_cell_angle_beta   90.00027109
_cell_angle_gamma   89.99997984
_symmetry_Int_Tables_number   1
_chemical_formula_structural   Mn
_chemical_formula_sum   Mn8
_cell_volume   356.08343155
_cell_formula_units_Z   8
loop_
 _symmetry_equiv_pos_site_id
 _symmetry_equiv_pos_as_xyz
  1  'x, y, z'
loop_
 _atom_site_type_symbol
 _atom_site_label
 _atom_site_symmetry_multiplicity
 _atom_site_fract_x
 _atom_site_fract_y
 _atom_site_fract_z
 _atom_site_occupancy
  Mn  Mn0  1  0.50001100  0.00000300  0.50000100  1.0
  Mn  Mn1  1  0.49998900  0.50000700  0.50000500  1.0
  Mn  Mn2  1  0.49260100  0.74999500  0.22116500  1.0
  Mn  Mn3  1  0.50738500  0.24999400  0.77883900  1.0
  Mn  Mn4  1  0.00000300  0.00000000  0.00000000  1.0
  Mn  Mn5  1  0.99999500  0.49999400  0.00000800  1.0
  Mn  Mn6  1  0.99261800  0.25000700  0.27882300  1.0
  Mn  Mn7  1  0.00739600  0.75000000  0.72117400  1.0
