# generated using pymatgen
data_TbCr
_symmetry_space_group_name_H-M   'P 1'
_cell_length_a   5.32639400
_cell_length_b   5.60689500
_cell_length_c   7.68288000
_cell_angle_alpha   90.00000000
_cell_angle_beta   90.00000000
_cell_angle_gamma   90.00000000
_symmetry_Int_Tables_number   1
_chemical_formula_structural   TbCr
_chemical_formula_sum   'Tb4 Cr4'
_cell_volume   229.44561474
_cell_formula_units_Z   4
loop_
 _symmetry_equiv_pos_site_id
 _symmetry_equiv_pos_as_xyz
  1  'x, y, z'
loop_
 _atom_site_type_symbol
 _atom_site_label
 _atom_site_symmetry_multiplicity
 _atom_site_fract_x
 _atom_site_fract_y
 _atom_site_fract_z
 _atom_site_occupancy
  Tb  Tb0  1  0.51943000  0.56568300  0.25000000  1.0
  Tb  Tb1  1  0.98057000  0.06568300  0.25000000  1.0
  Tb  Tb2  1  0.48057000  0.43431700  0.75000000  1.0
  Tb  Tb3  1  0.01943000  0.93431700  0.75000000  1.0
  Cr  Cr4  1  0.50000000  0.00000000  0.00000000  1.0
  Cr  Cr5  1  0.00000000  0.50000000  0.50000000  1.0
  Cr  Cr6  1  0.50000000  0.00000000  0.50000000  1.0
  Cr  Cr7  1  0.00000000  0.50000000  0.00000000  1.0
