# generated using pymatgen
data_Mn
_symmetry_space_group_name_H-M   'P 1'
_cell_length_a   5.87967900
_cell_length_b   7.65514600
_cell_length_c   8.64293900
_cell_angle_alpha   89.99978915
_cell_angle_beta   90.00002300
_cell_angle_gamma   89.99996554
_symmetry_Int_Tables_number   1
_chemical_formula_structural   Mn
_chemical_formula_sum   Mn8
_cell_volume   389.01696598
_cell_formula_units_Z   8
loop_
 _symmetry_equiv_pos_site_id
 _symmetry_equiv_pos_as_xyz
  1  'x, y, z'
loop_
 _atom_site_type_symbol
 _atom_site_label
 _atom_site_symmetry_multiplicity
 _atom_site_fract_x
 _atom_site_fract_y
 _atom_site_fract_z
 _atom_site_occupancy
  Mn  Mn0  1  0.74178500  0.50000000  0.50000100  1.0
  Mn  Mn1  1  0.25820500  0.00000000  0.00000000  1.0
  Mn  Mn2  1  0.25821500  0.50000000  0.49999900  1.0
  Mn  Mn3  1  0.74179400  0.00000000  0.00000000  1.0
  Mn  Mn4  1  0.50000100  0.59436700  0.84884300  1.0
  Mn  Mn5  1  0.50000100  0.40563100  0.15115600  1.0
  Mn  Mn6  1  0.50000000  0.09437000  0.65115400  1.0
  Mn  Mn7  1  0.50000000  0.90563100  0.34884600  1.0
