# generated using pymatgen
data_Nb
_symmetry_space_group_name_H-M   'P 1'
_cell_length_a   8.19816282
_cell_length_b   17.89052333
_cell_length_c   18.29466026
_cell_angle_alpha   90.00000000
_cell_angle_beta   102.94754561
_cell_angle_gamma   90.00000000
_symmetry_Int_Tables_number   1
_chemical_formula_structural   Nb
_chemical_formula_sum   Nb40
_cell_volume   2615.04680627
_cell_formula_units_Z   40
loop_
 _symmetry_equiv_pos_site_id
 _symmetry_equiv_pos_as_xyz
  1  'x, y, z'
loop_
 _atom_site_type_symbol
 _atom_site_label
 _atom_site_symmetry_multiplicity
 _atom_site_fract_x
 _atom_site_fract_y
 _atom_site_fract_z
 _atom_site_occupancy
  Nb  Nb0  1  0.86533333  0.25000000  0.75157432  1.0
  Nb  Nb1  1  0.11375901  0.75000000  0.24842568  1.0
  Nb  Nb2  1  0.36642864  0.25000000  0.74894013  1.0
  Nb  Nb3  1  0.61748851  0.75000000  0.25105987  1.0
  Nb  Nb4  1  0.86749101  0.75000000  0.74954143  1.0
  Nb  Nb5  1  0.11794958  0.25000000  0.25045857  1.0
  Nb  Nb6  1  0.36786964  0.75000000  0.75062116  1.0
  Nb  Nb7  1  0.61724848  0.25000000  0.24937884  1.0
  Nb  Nb8  1  0.96010263  0.14109994  0.93039857  1.0
  Nb  Nb9  1  0.02970406  0.85890006  0.06960143  1.0
  Nb  Nb10  1  0.96010263  0.35890006  0.93039857  1.0
  Nb  Nb11  1  0.02970406  0.64109994  0.06960143  1.0
  Nb  Nb12  1  0.46076512  0.14163846  0.93381554  1.0
  Nb  Nb13  1  0.52694958  0.85836154  0.06618446  1.0
  Nb  Nb14  1  0.46076512  0.35836154  0.93381554  1.0
  Nb  Nb15  1  0.52694958  0.64163846  0.06618446  1.0
  Nb  Nb16  1  0.20999444  0.64152736  0.43427712  1.0
  Nb  Nb17  1  0.77571732  0.35847264  0.56572288  1.0
  Nb  Nb18  1  0.20999444  0.85847264  0.43427712  1.0
  Nb  Nb19  1  0.77571732  0.14152736  0.56572288  1.0
  Nb  Nb20  1  0.70989948  0.64165626  0.43144354  1.0
  Nb  Nb21  1  0.27845594  0.35834374  0.56855646  1.0
  Nb  Nb22  1  0.70989948  0.85834374  0.43144354  1.0
  Nb  Nb23  1  0.27845594  0.14165626  0.56855646  1.0
  Nb  Nb24  1  0.06515506  0.06572634  0.14155729  1.0
  Nb  Nb25  1  0.92359777  0.93427366  0.85844271  1.0
  Nb  Nb26  1  0.06515506  0.43427366  0.14155729  1.0
  Nb  Nb27  1  0.92359777  0.56572634  0.85844271  1.0
  Nb  Nb28  1  0.56289939  0.06878925  0.14028410  1.0
  Nb  Nb29  1  0.42261529  0.93121075  0.85971590  1.0
  Nb  Nb30  1  0.56289939  0.43121075  0.14028410  1.0
  Nb  Nb31  1  0.42261529  0.56878925  0.85971590  1.0
  Nb  Nb32  1  0.31636188  0.56723911  0.64091060  1.0
  Nb  Nb33  1  0.67545129  0.43276089  0.35908940  1.0
  Nb  Nb34  1  0.31636188  0.93276089  0.64091060  1.0
  Nb  Nb35  1  0.67545129  0.06723911  0.35908940  1.0
  Nb  Nb36  1  0.81430327  0.56769962  0.64313526  1.0
  Nb  Nb37  1  0.17116801  0.43230038  0.35686474  1.0
  Nb  Nb38  1  0.81430327  0.93230038  0.64313526  1.0
  Nb  Nb39  1  0.17116801  0.06769962  0.35686474  1.0
