# generated using pymatgen
data_Fe
_symmetry_space_group_name_H-M   'P 1'
_cell_length_a   5.00158800
_cell_length_b   6.57217757
_cell_length_c   6.57217757
_cell_angle_alpha   81.97284703
_cell_angle_beta   67.63458450
_cell_angle_gamma   67.63458449
_symmetry_Int_Tables_number   1
_chemical_formula_structural   Fe
_chemical_formula_sum   Fe5
_cell_volume   184.75305060
_cell_formula_units_Z   5
loop_
 _symmetry_equiv_pos_site_id
 _symmetry_equiv_pos_as_xyz
  1  'x, y, z'
loop_
 _atom_site_type_symbol
 _atom_site_label
 _atom_site_symmetry_multiplicity
 _atom_site_fract_x
 _atom_site_fract_y
 _atom_site_fract_z
 _atom_site_occupancy
  Fe  Fe0  1  0.49620900  0.00191500  0.50063700  1.0
  Fe  Fe1  1  0.00123900  0.00191500  0.50063700  1.0
  Fe  Fe2  1  0.49620900  0.50063700  0.00191500  1.0
  Fe  Fe3  1  0.00123900  0.50063700  0.00191500  1.0
  Fe  Fe4  1  0.73331200  0.76668800  0.76668800  1.0
