# generated using pymatgen
data_Cu
_symmetry_space_group_name_H-M   'P 1'
_cell_length_a   2.98108100
_cell_length_b   6.20003400
_cell_length_c   13.29617400
_cell_angle_alpha   90.00000000
_cell_angle_beta   90.00000000
_cell_angle_gamma   90.00000000
_symmetry_Int_Tables_number   1
_chemical_formula_structural   Cu
_chemical_formula_sum   Cu8
_cell_volume   245.75057210
_cell_formula_units_Z   8
loop_
 _symmetry_equiv_pos_site_id
 _symmetry_equiv_pos_as_xyz
  1  'x, y, z'
loop_
 _atom_site_type_symbol
 _atom_site_label
 _atom_site_symmetry_multiplicity
 _atom_site_fract_x
 _atom_site_fract_y
 _atom_site_fract_z
 _atom_site_occupancy
  Cu  Cu0  1  0.75000000  0.36633400  0.88708300  1.0
  Cu  Cu1  1  0.25000000  0.63366600  0.11291700  1.0
  Cu  Cu2  1  0.75000000  0.86633400  0.61291700  1.0
  Cu  Cu3  1  0.25000000  0.13366600  0.38708300  1.0
  Cu  Cu4  1  0.75000000  0.88647300  0.24204000  1.0
  Cu  Cu5  1  0.25000000  0.11352700  0.75796000  1.0
  Cu  Cu6  1  0.75000000  0.38647300  0.25796000  1.0
  Cu  Cu7  1  0.25000000  0.61352700  0.74204000  1.0
