# generated using pymatgen
data_Cu
_symmetry_space_group_name_H-M   'P 1'
_cell_length_a   5.67314800
_cell_length_b   8.67244037
_cell_length_c   8.67244037
_cell_angle_alpha   83.85870260
_cell_angle_beta   70.90841563
_cell_angle_gamma   70.90841563
_symmetry_Int_Tables_number   1
_chemical_formula_structural   Cu
_chemical_formula_sum   Cu6
_cell_volume   381.03738200
_cell_formula_units_Z   6
loop_
 _symmetry_equiv_pos_site_id
 _symmetry_equiv_pos_as_xyz
  1  'x, y, z'
loop_
 _atom_site_type_symbol
 _atom_site_label
 _atom_site_symmetry_multiplicity
 _atom_site_fract_x
 _atom_site_fract_y
 _atom_site_fract_z
 _atom_site_occupancy
  Cu  Cu0  1  0.75000000  0.50000000  0.50000000  1.0
  Cu  Cu1  1  0.50000000  0.00000000  1.00000000  1.0
  Cu  Cu2  1  0.62500000  0.16788700  0.33211300  1.0
  Cu  Cu3  1  0.12500000  0.83211300  0.66788700  1.0
  Cu  Cu4  1  0.04288700  0.33211300  0.83211300  1.0
  Cu  Cu5  1  0.20711300  0.66788700  0.16788700  1.0
