# generated using pymatgen
data_TbIr
_symmetry_space_group_name_H-M   'P 1'
_cell_length_a   4.29396000
_cell_length_b   8.93016400
_cell_length_c   9.48937619
_cell_angle_alpha   118.06901902
_cell_angle_beta   103.07644708
_cell_angle_gamma   90.00000000
_symmetry_Int_Tables_number   1
_chemical_formula_structural   TbIr
_chemical_formula_sum   'Tb4 Ir4'
_cell_volume   310.34444817
_cell_formula_units_Z   4
loop_
 _symmetry_equiv_pos_site_id
 _symmetry_equiv_pos_as_xyz
  1  'x, y, z'
loop_
 _atom_site_type_symbol
 _atom_site_label
 _atom_site_symmetry_multiplicity
 _atom_site_fract_x
 _atom_site_fract_y
 _atom_site_fract_z
 _atom_site_occupancy
  Tb  Tb0  1  0.79462200  0.29462200  0.58924400  1.0
  Tb  Tb1  1  1.00000000  0.73760900  1.00000000  1.0
  Tb  Tb2  1  0.20537800  0.70537800  0.41075600  1.0
  Tb  Tb3  1  0.00000000  0.26239100  0.00000000  1.0
  Ir  Ir4  1  0.64542800  0.39450900  0.29085700  1.0
  Ir  Ir5  1  0.35457200  0.60549100  0.70914300  1.0
  Ir  Ir6  1  0.35457100  0.10365200  0.70914200  1.0
  Ir  Ir7  1  0.64542900  0.89634800  0.29085800  1.0
