# generated using pymatgen
data_Co
_symmetry_space_group_name_H-M   'P 1'
_cell_length_a   5.97756473
_cell_length_b   5.97756400
_cell_length_c   5.97756463
_cell_angle_alpha   60.00000349
_cell_angle_beta   60.00000612
_cell_angle_gamma   60.00000407
_symmetry_Int_Tables_number   1
_chemical_formula_structural   Co
_chemical_formula_sum   Co2
_cell_volume   151.02813175
_cell_formula_units_Z   2
loop_
 _symmetry_equiv_pos_site_id
 _symmetry_equiv_pos_as_xyz
  1  'x, y, z'
loop_
 _atom_site_type_symbol
 _atom_site_label
 _atom_site_symmetry_multiplicity
 _atom_site_fract_x
 _atom_site_fract_y
 _atom_site_fract_z
 _atom_site_occupancy
  Co  Co0  1  0.12500000  0.12500000  0.12500000  1.0
  Co  Co1  1  0.87500000  0.87500000  0.87500000  1.0
