# generated using pymatgen
data_HoCoNi
_symmetry_space_group_name_H-M   'P 1'
_cell_length_a   4.92805800
_cell_length_b   5.08395346
_cell_length_c   5.07104400
_cell_angle_alpha   119.91603755
_cell_angle_beta   90.00000000
_cell_angle_gamma   118.99071579
_symmetry_Int_Tables_number   1
_chemical_formula_structural   HoCoNi
_chemical_formula_sum   'Ho2 Co2 Ni2'
_cell_volume   91.29629974
_cell_formula_units_Z   2
loop_
 _symmetry_equiv_pos_site_id
 _symmetry_equiv_pos_as_xyz
  1  'x, y, z'
loop_
 _atom_site_type_symbol
 _atom_site_label
 _atom_site_symmetry_multiplicity
 _atom_site_fract_x
 _atom_site_fract_y
 _atom_site_fract_z
 _atom_site_occupancy
  Ho  Ho0  1  0.87775900  0.75551800  0.12775900  1.0
  Ho  Ho1  1  0.12224100  0.24448200  0.87224100  1.0
  Co  Co2  1  0.50000000  0.50000000  0.50000000  1.0
  Co  Co3  1  0.00000000  0.50000000  0.50000000  1.0
  Ni  Ni4  1  0.50000000  1.00000000  1.00000000  1.0
  Ni  Ni5  1  0.50000000  0.00000000  0.50000000  1.0
