# generated using pymatgen
data_TbCo
_symmetry_space_group_name_H-M   'P 1'
_cell_length_a   3.59979700
_cell_length_b   3.75653011
_cell_length_c   3.75653011
_cell_angle_alpha   106.15080899
_cell_angle_beta   90.00000000
_cell_angle_gamma   90.00000000
_symmetry_Int_Tables_number   1
_chemical_formula_structural   TbCo
_chemical_formula_sum   'Tb1 Co1'
_cell_volume   48.79372622
_cell_formula_units_Z   1
loop_
 _symmetry_equiv_pos_site_id
 _symmetry_equiv_pos_as_xyz
  1  'x, y, z'
loop_
 _atom_site_type_symbol
 _atom_site_label
 _atom_site_symmetry_multiplicity
 _atom_site_fract_x
 _atom_site_fract_y
 _atom_site_fract_z
 _atom_site_occupancy
  Tb  Tb0  1  0.00000000  0.00400100  0.99599900  1.0
  Co  Co1  1  0.50000000  0.62058800  0.37941200  1.0
