# generated using pymatgen
data_Ti
_symmetry_space_group_name_H-M   'P 1'
_cell_length_a   7.05185700
_cell_length_b   7.38217408
_cell_length_c   7.46008769
_cell_angle_alpha   81.40882271
_cell_angle_beta   62.29267349
_cell_angle_gamma   76.96921008
_symmetry_Int_Tables_number   1
_chemical_formula_structural   Ti
_chemical_formula_sum   Ti3
_cell_volume   334.52527070
_cell_formula_units_Z   3
loop_
 _symmetry_equiv_pos_site_id
 _symmetry_equiv_pos_as_xyz
  1  'x, y, z'
loop_
 _atom_site_type_symbol
 _atom_site_label
 _atom_site_symmetry_multiplicity
 _atom_site_fract_x
 _atom_site_fract_y
 _atom_site_fract_z
 _atom_site_occupancy
  Ti  Ti0  1  0.05194600  0.77245200  0.74031900  1.0
  Ti  Ti1  1  0.00000000  0.50000000  0.50000000  1.0
  Ti  Ti2  1  0.94805400  0.22754800  0.25968100  1.0
