# generated using pymatgen
data_Er3Ni
_symmetry_space_group_name_H-M   'P 1'
_cell_length_a   8.34028054
_cell_length_b   8.34028054
_cell_length_c   8.34028054
_cell_angle_alpha   74.32391155
_cell_angle_beta   70.23392434
_cell_angle_gamma   113.05537361
_symmetry_Int_Tables_number   1
_chemical_formula_structural   Er3Ni
_chemical_formula_sum   'Er12 Ni4'
_cell_volume   444.75030561
_cell_formula_units_Z   4
loop_
 _symmetry_equiv_pos_site_id
 _symmetry_equiv_pos_as_xyz
  1  'x, y, z'
loop_
 _atom_site_type_symbol
 _atom_site_label
 _atom_site_symmetry_multiplicity
 _atom_site_fract_x
 _atom_site_fract_y
 _atom_site_fract_z
 _atom_site_occupancy
  Er  Er0  1  0.19063800  0.51610700  0.67453100  1.0
  Er  Er1  1  0.19063800  0.86516900  0.32546800  1.0
  Er  Er2  1  0.29555100  0.73334500  0.97110400  1.0
  Er  Er3  1  0.70444900  0.26665500  0.02889600  1.0
  Er  Er4  1  0.29555100  0.26665500  0.43779400  1.0
  Er  Er5  1  0.70444900  0.73334500  0.56220600  1.0
  Er  Er6  1  0.80936200  0.13483100  0.67453200  1.0
  Er  Er7  1  0.80936200  0.48389300  0.32546900  1.0
  Er  Er8  1  0.02546500  0.20801100  0.18254600  1.0
  Er  Er9  1  0.39055700  0.20801100  0.81745400  1.0
  Er  Er10  1  0.60944300  0.79198900  0.18254600  1.0
  Er  Er11  1  0.97453500  0.79198900  0.81745400  1.0
  Ni  Ni12  1  0.00000000  0.87644600  0.12355400  1.0
  Ni  Ni13  1  1.00000000  0.12355400  0.87644600  1.0
  Ni  Ni14  1  0.84945000  0.50000000  0.65055000  1.0
  Ni  Ni15  1  0.15055000  0.50000000  0.34945000  1.0
