# generated using pymatgen
data_V
_symmetry_space_group_name_H-M   'P 1'
_cell_length_a   2.92197800
_cell_length_b   7.33640304
_cell_length_c   7.56991216
_cell_angle_alpha   80.59928989
_cell_angle_beta   78.87211843
_cell_angle_gamma   78.51318586
_symmetry_Int_Tables_number   1
_chemical_formula_structural   V
_chemical_formula_sum   V4
_cell_volume   154.71259766
_cell_formula_units_Z   4
loop_
 _symmetry_equiv_pos_site_id
 _symmetry_equiv_pos_as_xyz
  1  'x, y, z'
loop_
 _atom_site_type_symbol
 _atom_site_label
 _atom_site_symmetry_multiplicity
 _atom_site_fract_x
 _atom_site_fract_y
 _atom_site_fract_z
 _atom_site_occupancy
  V  V0  1  0.35951400  0.31400200  0.96697000  1.0
  V  V1  1  0.84775500  0.98776800  0.31672200  1.0
  V  V2  1  0.15224500  0.01223200  0.68327800  1.0
  V  V3  1  0.64048600  0.68599800  0.03303000  1.0
