# generated using pymatgen
data_Sm2Co3
_symmetry_space_group_name_H-M   'P 1'
_cell_length_a   7.40981247
_cell_length_b   7.40981247
_cell_length_c   9.39998000
_cell_angle_alpha   90.00000000
_cell_angle_beta   90.00000000
_cell_angle_gamma   118.97332855
_symmetry_Int_Tables_number   1
_chemical_formula_structural   Sm2Co3
_chemical_formula_sum   'Sm4 Co6'
_cell_volume   451.51545766
_cell_formula_units_Z   2
loop_
 _symmetry_equiv_pos_site_id
 _symmetry_equiv_pos_as_xyz
  1  'x, y, z'
loop_
 _atom_site_type_symbol
 _atom_site_label
 _atom_site_symmetry_multiplicity
 _atom_site_fract_x
 _atom_site_fract_y
 _atom_site_fract_z
 _atom_site_occupancy
  Sm  Sm0  1  0.67089600  0.99359600  0.75000000  1.0
  Sm  Sm1  1  0.32910400  0.00640400  0.25000000  1.0
  Sm  Sm2  1  0.99359600  0.67089600  0.75000000  1.0
  Sm  Sm3  1  0.00640400  0.32910400  0.25000000  1.0
  Co  Co4  1  0.32953000  0.67047000  1.00000000  1.0
  Co  Co5  1  0.67047000  0.32953000  1.00000000  1.0
  Co  Co6  1  0.67047000  0.32953000  0.50000000  1.0
  Co  Co7  1  0.32953000  0.67047000  0.50000000  1.0
  Co  Co8  1  0.00000000  0.00000000  0.00000000  1.0
  Co  Co9  1  0.00000000  0.00000000  0.50000000  1.0
