# generated using pymatgen
data_Ti
_symmetry_space_group_name_H-M   'P 1'
_cell_length_a   3.93568600
_cell_length_b   11.07042900
_cell_length_c   11.53582200
_cell_angle_alpha   90.00000000
_cell_angle_beta   90.00000000
_cell_angle_gamma   90.00000000
_symmetry_Int_Tables_number   1
_chemical_formula_structural   Ti
_chemical_formula_sum   Ti4
_cell_volume   502.61267789
_cell_formula_units_Z   4
loop_
 _symmetry_equiv_pos_site_id
 _symmetry_equiv_pos_as_xyz
  1  'x, y, z'
loop_
 _atom_site_type_symbol
 _atom_site_label
 _atom_site_symmetry_multiplicity
 _atom_site_fract_x
 _atom_site_fract_y
 _atom_site_fract_z
 _atom_site_occupancy
  Ti  Ti0  1  0.25000000  0.30815700  0.87277900  1.0
  Ti  Ti1  1  0.75000000  0.69184300  0.12722100  1.0
  Ti  Ti2  1  0.25000000  0.80815700  0.62722100  1.0
  Ti  Ti3  1  0.75000000  0.19184300  0.37277800  1.0
