# generated using pymatgen
data_ErCu
_symmetry_space_group_name_H-M   'P 1'
_cell_length_a   4.13150800
_cell_length_b   4.13150810
_cell_length_c   7.35715000
_cell_angle_alpha   90.00000000
_cell_angle_beta   90.00000000
_cell_angle_gamma   119.99999920
_symmetry_Int_Tables_number   1
_chemical_formula_structural   ErCu
_chemical_formula_sum   'Er2 Cu2'
_cell_volume   108.75705837
_cell_formula_units_Z   2
loop_
 _symmetry_equiv_pos_site_id
 _symmetry_equiv_pos_as_xyz
  1  'x, y, z'
loop_
 _atom_site_type_symbol
 _atom_site_label
 _atom_site_symmetry_multiplicity
 _atom_site_fract_x
 _atom_site_fract_y
 _atom_site_fract_z
 _atom_site_occupancy
  Er  Er0  1  0.00000000  0.00000000  0.50000000  1.0
  Er  Er1  1  0.00000000  0.00000000  0.00000000  1.0
  Cu  Cu2  1  0.66666667  0.33333333  0.75000000  1.0
  Cu  Cu3  1  0.33333333  0.66666667  0.25000000  1.0
