# generated using pymatgen
data_Nd2Os
_symmetry_space_group_name_H-M   'P 1'
_cell_length_a   5.47632000
_cell_length_b   5.85006900
_cell_length_c   7.80832896
_cell_angle_alpha   90.00000000
_cell_angle_beta   90.59211779
_cell_angle_gamma   90.00000000
_symmetry_Int_Tables_number   1
_chemical_formula_structural   Nd2Os
_chemical_formula_sum   'Nd4 Os2'
_cell_volume   250.14090463
_cell_formula_units_Z   2
loop_
 _symmetry_equiv_pos_site_id
 _symmetry_equiv_pos_as_xyz
  1  'x, y, z'
loop_
 _atom_site_type_symbol
 _atom_site_label
 _atom_site_symmetry_multiplicity
 _atom_site_fract_x
 _atom_site_fract_y
 _atom_site_fract_z
 _atom_site_occupancy
  Nd  Nd0  1  0.48242500  0.92862100  0.25136000  1.0
  Nd  Nd1  1  0.01757500  0.42862100  0.24864000  1.0
  Nd  Nd2  1  0.98242500  0.57137900  0.75136000  1.0
  Nd  Nd3  1  0.51757500  0.07137900  0.74864000  1.0
  Os  Os4  1  0.50000000  0.50000000  1.00000000  1.0
  Os  Os5  1  0.00000000  0.00000000  0.50000000  1.0
