# generated using pymatgen
data_Er
_symmetry_space_group_name_H-M   'P 1'
_cell_length_a   4.29054300
_cell_length_b   6.93607900
_cell_length_c   7.44832100
_cell_angle_alpha   90.00000000
_cell_angle_beta   90.00000000
_cell_angle_gamma   90.00000000
_symmetry_Int_Tables_number   1
_chemical_formula_structural   Er
_chemical_formula_sum   Er4
_cell_volume   221.65864547
_cell_formula_units_Z   4
loop_
 _symmetry_equiv_pos_site_id
 _symmetry_equiv_pos_as_xyz
  1  'x, y, z'
loop_
 _atom_site_type_symbol
 _atom_site_label
 _atom_site_symmetry_multiplicity
 _atom_site_fract_x
 _atom_site_fract_y
 _atom_site_fract_z
 _atom_site_occupancy
  Er  Er0  1  0.25000000  0.99821300  0.79649900  1.0
  Er  Er1  1  0.25000000  0.49821300  0.70350100  1.0
  Er  Er2  1  0.75000000  0.00178700  0.20350100  1.0
  Er  Er3  1  0.75000000  0.50178700  0.29649900  1.0
