# generated using pymatgen
data_Co
_symmetry_space_group_name_H-M   'P 1'
_cell_length_a   5.23147400
_cell_length_b   6.95368231
_cell_length_c   11.67665962
_cell_angle_alpha   98.33394988
_cell_angle_beta   90.00000000
_cell_angle_gamma   112.09638057
_symmetry_Int_Tables_number   1
_chemical_formula_structural   Co
_chemical_formula_sum   Co4
_cell_volume   388.72960278
_cell_formula_units_Z   4
loop_
 _symmetry_equiv_pos_site_id
 _symmetry_equiv_pos_as_xyz
  1  'x, y, z'
loop_
 _atom_site_type_symbol
 _atom_site_label
 _atom_site_symmetry_multiplicity
 _atom_site_fract_x
 _atom_site_fract_y
 _atom_site_fract_z
 _atom_site_occupancy
  Co  Co0  1  0.97155500  0.54068400  0.15064000  1.0
  Co  Co1  1  0.43087100  0.45931600  0.34936000  1.0
  Co  Co2  1  0.02844500  0.45931600  0.84936000  1.0
  Co  Co3  1  0.56912900  0.54068400  0.65064000  1.0
