# generated using pymatgen
data_Fe
_symmetry_space_group_name_H-M   'P 1'
_cell_length_a   5.33435080
_cell_length_b   6.76948990
_cell_length_c   6.76965889
_cell_angle_alpha   85.08675091
_cell_angle_beta   78.73260952
_cell_angle_gamma   78.73274480
_symmetry_Int_Tables_number   1
_chemical_formula_structural   Fe
_chemical_formula_sum   Fe2
_cell_volume   234.83903974
_cell_formula_units_Z   2
loop_
 _symmetry_equiv_pos_site_id
 _symmetry_equiv_pos_as_xyz
  1  'x, y, z'
loop_
 _atom_site_type_symbol
 _atom_site_label
 _atom_site_symmetry_multiplicity
 _atom_site_fract_x
 _atom_site_fract_y
 _atom_site_fract_z
 _atom_site_occupancy
  Fe  Fe0  1  0.24996350  0.90818500  0.09187100  1.0
  Fe  Fe1  1  0.74997100  0.09186250  0.90818950  1.0
