# generated using pymatgen
data_Dy3Nb2
_symmetry_space_group_name_H-M   'P 1'
_cell_length_a   11.15210800
_cell_length_b   11.15210814
_cell_length_c   17.76054700
_cell_angle_alpha   90.00000000
_cell_angle_beta   90.00000000
_cell_angle_gamma   119.99999957
_symmetry_Int_Tables_number   1
_chemical_formula_structural   Dy3Nb2
_chemical_formula_sum   'Dy12 Nb8'
_cell_volume   1912.93806606
_cell_formula_units_Z   4
loop_
 _symmetry_equiv_pos_site_id
 _symmetry_equiv_pos_as_xyz
  1  'x, y, z'
loop_
 _atom_site_type_symbol
 _atom_site_label
 _atom_site_symmetry_multiplicity
 _atom_site_fract_x
 _atom_site_fract_y
 _atom_site_fract_z
 _atom_site_occupancy
  Dy  Dy0  1  0.47040200  0.47040200  0.40411300  1.0
  Dy  Dy1  1  0.52959800  0.52959800  0.59588700  1.0
  Dy  Dy2  1  1.00000000  0.52959800  0.40411300  1.0
  Dy  Dy3  1  0.52959800  0.52959800  0.90411300  1.0
  Dy  Dy4  1  1.00000000  0.52959800  0.09588700  1.0
  Dy  Dy5  1  0.00000000  0.47040200  0.59588700  1.0
  Dy  Dy6  1  0.47040200  0.47040200  0.09588700  1.0
  Dy  Dy7  1  0.00000000  0.47040200  0.90411300  1.0
  Dy  Dy8  1  0.52959800  1.00000000  0.40411300  1.0
  Dy  Dy9  1  0.47040200  1.00000000  0.59588700  1.0
  Dy  Dy10  1  0.47040200  1.00000000  0.90411300  1.0
  Dy  Dy11  1  0.52959800  1.00000000  0.09588700  1.0
  Nb  Nb12  1  0.00000000  0.00000000  0.50000000  1.0
  Nb  Nb13  1  0.00000000  0.00000000  0.00000000  1.0
  Nb  Nb14  1  0.27308600  0.27308600  0.25000000  1.0
  Nb  Nb15  1  0.72691400  0.72691400  0.75000000  1.0
  Nb  Nb16  1  1.00000000  0.72691400  0.25000000  1.0
  Nb  Nb17  1  0.00000000  0.27308600  0.75000000  1.0
  Nb  Nb18  1  0.72691400  1.00000000  0.25000000  1.0
  Nb  Nb19  1  0.27308600  1.00000000  0.75000000  1.0
