# generated using pymatgen
data_Dy3W2
_symmetry_space_group_name_H-M   'P 1'
_cell_length_a   11.06029400
_cell_length_b   11.06029350
_cell_length_c   17.60830300
_cell_angle_alpha   90.00000000
_cell_angle_beta   90.00000000
_cell_angle_gamma   120.00000150
_symmetry_Int_Tables_number   1
_chemical_formula_structural   Dy3W2
_chemical_formula_sum   'Dy12 W8'
_cell_volume   1865.44071354
_cell_formula_units_Z   4
loop_
 _symmetry_equiv_pos_site_id
 _symmetry_equiv_pos_as_xyz
  1  'x, y, z'
loop_
 _atom_site_type_symbol
 _atom_site_label
 _atom_site_symmetry_multiplicity
 _atom_site_fract_x
 _atom_site_fract_y
 _atom_site_fract_z
 _atom_site_occupancy
  Dy  Dy0  1  0.53092600  1.00000000  0.09562300  1.0
  Dy  Dy1  1  0.46907400  0.46907400  0.09562300  1.0
  Dy  Dy2  1  1.00000000  0.53092600  0.09562300  1.0
  Dy  Dy3  1  0.46907400  0.00000000  0.90437700  1.0
  Dy  Dy4  1  0.53092600  0.53092600  0.90437700  1.0
  Dy  Dy5  1  1.00000000  0.46907400  0.90437700  1.0
  Dy  Dy6  1  0.46907400  0.00000000  0.59562300  1.0
  Dy  Dy7  1  0.53092600  0.53092600  0.59562300  1.0
  Dy  Dy8  1  1.00000000  0.46907400  0.59562300  1.0
  Dy  Dy9  1  0.53092600  1.00000000  0.40437700  1.0
  Dy  Dy10  1  0.46907400  0.46907400  0.40437700  1.0
  Dy  Dy11  1  1.00000000  0.53092600  0.40437700  1.0
  W  W12  1  0.72928400  1.00000000  0.25000000  1.0
  W  W13  1  0.27071600  0.27071600  0.25000000  1.0
  W  W14  1  0.00000000  0.72928400  0.25000000  1.0
  W  W15  1  0.27071600  0.00000000  0.75000000  1.0
  W  W16  1  0.72928400  0.72928400  0.75000000  1.0
  W  W17  1  1.00000000  0.27071600  0.75000000  1.0
  W  W18  1  0.00000000  0.00000000  0.00000000  1.0
  W  W19  1  0.00000000  0.00000000  0.50000000  1.0
