# generated using pymatgen
data_Mn
_symmetry_space_group_name_H-M   'P 1'
_cell_length_a   5.75968800
_cell_length_b   5.75968789
_cell_length_c   14.31339500
_cell_angle_alpha   90.00000000
_cell_angle_beta   90.00000000
_cell_angle_gamma   120.00000062
_symmetry_Int_Tables_number   1
_chemical_formula_structural   Mn
_chemical_formula_sum   Mn6
_cell_volume   411.21712655
_cell_formula_units_Z   6
loop_
 _symmetry_equiv_pos_site_id
 _symmetry_equiv_pos_as_xyz
  1  'x, y, z'
loop_
 _atom_site_type_symbol
 _atom_site_label
 _atom_site_symmetry_multiplicity
 _atom_site_fract_x
 _atom_site_fract_y
 _atom_site_fract_z
 _atom_site_occupancy
  Mn  Mn0  1  0.00000000  0.00000000  0.76489000  1.0
  Mn  Mn1  1  0.00000000  0.00000000  0.58760200  1.0
  Mn  Mn2  1  0.00000000  0.00000000  0.41239800  1.0
  Mn  Mn3  1  0.00000000  0.00000000  0.23511000  1.0
  Mn  Mn4  1  0.33333333  0.66666667  0.09080500  1.0
  Mn  Mn5  1  0.33333333  0.66666667  0.90919500  1.0
