# generated using pymatgen
data_Tm3W2
_symmetry_space_group_name_H-M   'P 1'
_cell_length_a   11.03137600
_cell_length_b   11.03137699
_cell_length_c   17.54139300
_cell_angle_alpha   90.00000000
_cell_angle_beta   90.00000000
_cell_angle_gamma   119.99999702
_symmetry_Int_Tables_number   1
_chemical_formula_structural   Tm3W2
_chemical_formula_sum   'Tm12 W8'
_cell_volume   1848.64762622
_cell_formula_units_Z   4
loop_
 _symmetry_equiv_pos_site_id
 _symmetry_equiv_pos_as_xyz
  1  'x, y, z'
loop_
 _atom_site_type_symbol
 _atom_site_label
 _atom_site_symmetry_multiplicity
 _atom_site_fract_x
 _atom_site_fract_y
 _atom_site_fract_z
 _atom_site_occupancy
  Tm  Tm0  1  0.53173300  0.00000000  0.09561100  1.0
  Tm  Tm1  1  0.46826700  0.46826700  0.09561100  1.0
  Tm  Tm2  1  1.00000000  0.53173300  0.09561100  1.0
  Tm  Tm3  1  0.46826700  1.00000000  0.90438900  1.0
  Tm  Tm4  1  0.53173300  0.53173300  0.90438900  1.0
  Tm  Tm5  1  0.00000000  0.46826700  0.90438900  1.0
  Tm  Tm6  1  0.46826700  1.00000000  0.59561100  1.0
  Tm  Tm7  1  0.53173300  0.53173300  0.59561100  1.0
  Tm  Tm8  1  0.00000000  0.46826700  0.59561100  1.0
  Tm  Tm9  1  0.53173300  0.00000000  0.40438900  1.0
  Tm  Tm10  1  0.46826700  0.46826700  0.40438900  1.0
  Tm  Tm11  1  1.00000000  0.53173300  0.40438900  1.0
  W  W12  1  0.72860100  1.00000000  0.25000000  1.0
  W  W13  1  0.27139900  0.27139900  0.25000000  1.0
  W  W14  1  1.00000000  0.72860100  0.25000000  1.0
  W  W15  1  0.27139900  0.00000000  0.75000000  1.0
  W  W16  1  0.72860100  0.72860100  0.75000000  1.0
  W  W17  1  1.00000000  0.27139900  0.75000000  1.0
  W  W18  1  0.00000000  0.00000000  0.00000000  1.0
  W  W19  1  0.00000000  0.00000000  0.50000000  1.0
