# generated using pymatgen
data_DyFe5
_symmetry_space_group_name_H-M   'P 1'
_cell_length_a   5.01699800
_cell_length_b   6.60887301
_cell_length_c   6.60887301
_cell_angle_alpha   81.83909741
_cell_angle_beta   67.69323982
_cell_angle_gamma   67.69323983
_symmetry_Int_Tables_number   1
_chemical_formula_structural   DyFe5
_chemical_formula_sum   'Dy1 Fe5'
_cell_volume   187.55806676
_cell_formula_units_Z   1
loop_
 _symmetry_equiv_pos_site_id
 _symmetry_equiv_pos_as_xyz
  1  'x, y, z'
loop_
 _atom_site_type_symbol
 _atom_site_label
 _atom_site_symmetry_multiplicity
 _atom_site_fract_x
 _atom_site_fract_y
 _atom_site_fract_z
 _atom_site_occupancy
  Dy  Dy0  1  0.00482200  0.99517800  0.99517800  1.0
  Fe  Fe1  1  0.49610500  0.00208000  0.50104800  1.0
  Fe  Fe2  1  0.00076700  0.00208000  0.50104800  1.0
  Fe  Fe3  1  0.49610500  0.50104800  0.00208000  1.0
  Fe  Fe4  1  0.00076700  0.50104800  0.00208000  1.0
  Fe  Fe5  1  0.73544900  0.76455100  0.76455100  1.0
