# generated using pymatgen
data_PrNi
_symmetry_space_group_name_H-M   'P 1'
_cell_length_a   6.28139600
_cell_length_b   12.70379500
_cell_length_c   18.57408200
_cell_angle_alpha   90.00000000
_cell_angle_beta   90.00000000
_cell_angle_gamma   90.00000000
_symmetry_Int_Tables_number   1
_chemical_formula_structural   PrNi
_chemical_formula_sum   'Pr12 Ni12'
_cell_volume   1482.16655468
_cell_formula_units_Z   12
loop_
 _symmetry_equiv_pos_site_id
 _symmetry_equiv_pos_as_xyz
  1  'x, y, z'
loop_
 _atom_site_type_symbol
 _atom_site_label
 _atom_site_symmetry_multiplicity
 _atom_site_fract_x
 _atom_site_fract_y
 _atom_site_fract_z
 _atom_site_occupancy
  Pr  Pr0  1  0.97228200  0.70074100  0.58358600  1.0
  Pr  Pr1  1  0.02771800  0.29925900  0.08358600  1.0
  Pr  Pr2  1  0.52771800  0.70074100  0.41641400  1.0
  Pr  Pr3  1  0.47228200  0.29925900  0.91641400  1.0
  Pr  Pr4  1  0.44088100  0.69451100  0.75000000  1.0
  Pr  Pr5  1  0.05911900  0.69451100  0.25000000  1.0
  Pr  Pr6  1  0.52771800  0.70074100  0.08358600  1.0
  Pr  Pr7  1  0.02771800  0.29925900  0.41641400  1.0
  Pr  Pr8  1  0.55911900  0.30548900  0.25000000  1.0
  Pr  Pr9  1  0.94088100  0.30548900  0.75000000  1.0
  Pr  Pr10  1  0.47228200  0.29925900  0.58358600  1.0
  Pr  Pr11  1  0.97228200  0.70074100  0.91641400  1.0
  Ni  Ni12  1  0.17294400  0.09906100  0.67589900  1.0
  Ni  Ni13  1  0.32705600  0.09906100  0.17589900  1.0
  Ni  Ni14  1  0.25000000  0.89767600  0.50000000  1.0
  Ni  Ni15  1  0.82705600  0.90093800  0.32410100  1.0
  Ni  Ni16  1  0.82705600  0.90093800  0.17589900  1.0
  Ni  Ni17  1  0.32705600  0.09906100  0.32410100  1.0
  Ni  Ni18  1  0.67294400  0.90093800  0.82410100  1.0
  Ni  Ni19  1  0.67294400  0.90093800  0.67589900  1.0
  Ni  Ni20  1  0.17294400  0.09906100  0.82410100  1.0
  Ni  Ni21  1  0.75000000  0.10232400  0.00000000  1.0
  Ni  Ni22  1  0.25000000  0.89767600  0.00000000  1.0
  Ni  Ni23  1  0.75000000  0.10232400  0.50000000  1.0
