# generated using pymatgen
data_Dy
_symmetry_space_group_name_H-M   'P 1'
_cell_length_a   10.74867257
_cell_length_b   10.74867257
_cell_length_c   10.74867257
_cell_angle_alpha   109.47122063
_cell_angle_beta   109.47122064
_cell_angle_gamma   109.47122064
_symmetry_Int_Tables_number   1
_chemical_formula_structural   Dy
_chemical_formula_sum   Dy12
_cell_volume   955.96635943
_cell_formula_units_Z   12
loop_
 _symmetry_equiv_pos_site_id
 _symmetry_equiv_pos_as_xyz
  1  'x, y, z'
loop_
 _atom_site_type_symbol
 _atom_site_label
 _atom_site_symmetry_multiplicity
 _atom_site_fract_x
 _atom_site_fract_y
 _atom_site_fract_z
 _atom_site_occupancy
  Dy  Dy0  1  0.12500000  0.75000000  0.87500000  1.0
  Dy  Dy1  1  0.37500000  0.25000000  0.62500000  1.0
  Dy  Dy2  1  0.12500000  0.37500000  0.75000000  1.0
  Dy  Dy3  1  0.37500000  0.12500000  0.25000000  1.0
  Dy  Dy4  1  0.75000000  0.37500000  0.62500000  1.0
  Dy  Dy5  1  0.25000000  0.12500000  0.87500000  1.0
  Dy  Dy6  1  0.87500000  0.25000000  0.12500000  1.0
  Dy  Dy7  1  0.62500000  0.75000000  0.37500000  1.0
  Dy  Dy8  1  0.87500000  0.62500000  0.25000000  1.0
  Dy  Dy9  1  0.62500000  0.87500000  0.75000000  1.0
  Dy  Dy10  1  0.25000000  0.62500000  0.37500000  1.0
  Dy  Dy11  1  0.75000000  0.87500000  0.12500000  1.0
