# generated using pymatgen
data_Yb7Co4
_symmetry_space_group_name_H-M   'P 1'
_cell_length_a   4.29756300
_cell_length_b   10.33705600
_cell_length_c   10.33705600
_cell_angle_alpha   90.00000000
_cell_angle_beta   90.00000000
_cell_angle_gamma   90.00000000
_symmetry_Int_Tables_number   1
_chemical_formula_structural   Yb7Co4
_chemical_formula_sum   'Yb7 Co4'
_cell_volume   459.21492004
_cell_formula_units_Z   1
loop_
 _symmetry_equiv_pos_site_id
 _symmetry_equiv_pos_as_xyz
  1  'x, y, z'
loop_
 _atom_site_type_symbol
 _atom_site_label
 _atom_site_symmetry_multiplicity
 _atom_site_fract_x
 _atom_site_fract_y
 _atom_site_fract_z
 _atom_site_occupancy
  Yb  Yb0  1  0.50000000  0.32551600  0.67545100  1.0
  Yb  Yb1  1  0.50000000  0.32454900  0.32551600  1.0
  Yb  Yb2  1  0.50000000  0.67448400  0.32454900  1.0
  Yb  Yb3  1  0.50000000  0.67545100  0.67448400  1.0
  Yb  Yb4  1  0.50000000  0.00000000  0.50000000  1.0
  Yb  Yb5  1  0.00000000  0.00000000  0.00000000  1.0
  Yb  Yb6  1  0.50000000  0.50000000  0.00000000  1.0
  Co  Co7  1  1.00000000  0.11613700  0.72153900  1.0
  Co  Co8  1  1.00000000  0.88386300  0.27846100  1.0
  Co  Co9  1  1.00000000  0.72153900  0.88386300  1.0
  Co  Co10  1  0.00000000  0.27846100  0.11613700  1.0
