# generated using pymatgen
data_Tb2Ni
_symmetry_space_group_name_H-M   'P 1'
_cell_length_a   4.15060200
_cell_length_b   4.15060200
_cell_length_c   10.16489095
_cell_angle_alpha   101.78054293
_cell_angle_beta   101.78054294
_cell_angle_gamma   89.99999998
_symmetry_Int_Tables_number   1
_chemical_formula_structural   Tb2Ni
_chemical_formula_sum   'Tb2 Ni1'
_cell_volume   167.65750080
_cell_formula_units_Z   1
loop_
 _symmetry_equiv_pos_site_id
 _symmetry_equiv_pos_as_xyz
  1  'x, y, z'
loop_
 _atom_site_type_symbol
 _atom_site_label
 _atom_site_symmetry_multiplicity
 _atom_site_fract_x
 _atom_site_fract_y
 _atom_site_fract_z
 _atom_site_occupancy
  Tb  Tb0  1  0.81401900  0.81401900  0.62803800  1.0
  Tb  Tb1  1  0.18598100  0.18598100  0.37196200  1.0
  Ni  Ni2  1  0.00000000  0.00000000  0.00000000  1.0
