# generated using pymatgen
data_MnV
_symmetry_space_group_name_H-M   'P 1'
_cell_length_a   8.82542400
_cell_length_b   9.97121092
_cell_length_c   9.97121092
_cell_angle_alpha   78.70583393
_cell_angle_beta   63.73360898
_cell_angle_gamma   63.73360898
_symmetry_Int_Tables_number   1
_chemical_formula_structural   MnV
_chemical_formula_sum   'Mn8 V8'
_cell_volume   705.61930172
_cell_formula_units_Z   8
loop_
 _symmetry_equiv_pos_site_id
 _symmetry_equiv_pos_as_xyz
  1  'x, y, z'
loop_
 _atom_site_type_symbol
 _atom_site_label
 _atom_site_symmetry_multiplicity
 _atom_site_fract_x
 _atom_site_fract_y
 _atom_site_fract_z
 _atom_site_occupancy
  Mn  Mn0  1  0.37431400  0.99693900  0.33544700  1.0
  Mn  Mn1  1  0.87431400  0.33544700  0.99693900  1.0
  Mn  Mn2  1  0.95976100  0.16455300  0.49693900  1.0
  Mn  Mn3  1  0.12125300  0.50306100  0.83544700  1.0
  Mn  Mn4  1  0.70670000  0.00306100  0.66455300  1.0
  Mn  Mn5  1  0.20670000  0.66455300  0.00306100  1.0
  Mn  Mn6  1  0.62125300  0.83544700  0.50306100  1.0
  Mn  Mn7  1  0.45976100  0.49693900  0.16455300  1.0
  V  V8  1  0.25111200  0.18520100  0.65691500  1.0
  V  V9  1  0.75111200  0.65691500  0.18520100  1.0
  V  V10  1  0.15802800  0.84308500  0.68520000  1.0
  V  V11  1  0.18631400  0.31479900  0.15691400  1.0
  V  V12  1  0.09322800  0.81479900  0.34308600  1.0
  V  V13  1  0.59322800  0.34308500  0.81480000  1.0
  V  V14  1  0.68631300  0.15691500  0.31479900  1.0
  V  V15  1  0.65802700  0.68520100  0.84308500  1.0
