# generated using pymatgen
data_TbFe5
_symmetry_space_group_name_H-M   'P 1'
_cell_length_a   5.01790800
_cell_length_b   6.61740409
_cell_length_c   6.61740409
_cell_angle_alpha   81.98814488
_cell_angle_beta   67.71928362
_cell_angle_gamma   67.71928362
_symmetry_Int_Tables_number   1
_chemical_formula_structural   TbFe5
_chemical_formula_sum   'Tb1 Fe5'
_cell_volume   188.14494390
_cell_formula_units_Z   1
loop_
 _symmetry_equiv_pos_site_id
 _symmetry_equiv_pos_as_xyz
  1  'x, y, z'
loop_
 _atom_site_type_symbol
 _atom_site_label
 _atom_site_symmetry_multiplicity
 _atom_site_fract_x
 _atom_site_fract_y
 _atom_site_fract_z
 _atom_site_occupancy
  Tb  Tb0  1  0.00489000  0.99511000  0.99511000  1.0
  Fe  Fe1  1  0.49665300  0.00157000  0.50100000  1.0
  Fe  Fe2  1  0.00077600  0.00157100  0.50100000  1.0
  Fe  Fe3  1  0.49665300  0.50100000  0.00157000  1.0
  Fe  Fe4  1  0.00077600  0.50100100  0.00157000  1.0
  Fe  Fe5  1  0.73574300  0.76425700  0.76425700  1.0
