# generated using pymatgen
data_Dy3Pd20
_symmetry_space_group_name_H-M   'P 1'
_cell_length_a   8.71954727
_cell_length_b   8.71954727
_cell_length_c   8.71954727
_cell_angle_alpha   60.00000000
_cell_angle_beta   60.00000000
_cell_angle_gamma   60.00000000
_symmetry_Int_Tables_number   1
_chemical_formula_structural   Dy3Pd20
_chemical_formula_sum   'Dy3 Pd20'
_cell_volume   468.77755694
_cell_formula_units_Z   1
loop_
 _symmetry_equiv_pos_site_id
 _symmetry_equiv_pos_as_xyz
  1  'x, y, z'
loop_
 _atom_site_type_symbol
 _atom_site_label
 _atom_site_symmetry_multiplicity
 _atom_site_fract_x
 _atom_site_fract_y
 _atom_site_fract_z
 _atom_site_occupancy
  Dy  Dy0  1  0.75000000  0.75000000  0.75000000  1.0
  Dy  Dy1  1  0.25000000  0.25000000  0.25000000  1.0
  Dy  Dy2  1  0.00000000  0.00000000  0.00000000  1.0
  Pd  Pd3  1  0.15048200  0.61650600  0.61650600  1.0
  Pd  Pd4  1  0.84951800  0.38349400  0.38349400  1.0
  Pd  Pd5  1  0.61650500  0.15048300  0.61650600  1.0
  Pd  Pd6  1  0.61650500  0.61650600  0.61650600  1.0
  Pd  Pd7  1  0.38349500  0.84951700  0.38349400  1.0
  Pd  Pd8  1  0.38349500  0.38349400  0.38349400  1.0
  Pd  Pd9  1  0.61650500  0.61650600  0.15048300  1.0
  Pd  Pd10  1  0.38349500  0.38349400  0.84951700  1.0
  Pd  Pd11  1  0.34525700  0.00000000  0.65474300  1.0
  Pd  Pd12  1  0.65474300  0.00000000  0.34525700  1.0
  Pd  Pd13  1  1.00000000  0.34525700  1.00000000  1.0
  Pd  Pd14  1  1.00000000  0.65474300  0.00000000  1.0
  Pd  Pd15  1  0.34525700  0.00000000  1.00000000  1.0
  Pd  Pd16  1  1.00000000  0.65474300  0.34525700  1.0
  Pd  Pd17  1  0.65474300  0.00000000  0.00000000  1.0
  Pd  Pd18  1  1.00000000  0.34525700  0.65474300  1.0
  Pd  Pd19  1  0.34525700  0.65474300  0.00000000  1.0
  Pd  Pd20  1  0.65474300  0.34525700  0.00000000  1.0
  Pd  Pd21  1  1.00000000  0.00000000  0.34525700  1.0
  Pd  Pd22  1  0.00000000  0.00000000  0.65474300  1.0
