# generated using pymatgen
data_Fe
_symmetry_space_group_name_H-M   'P 1'
_cell_length_a   5.56329200
_cell_length_b   5.57126000
_cell_length_c   6.91573637
_cell_angle_alpha   90.00000000
_cell_angle_beta   113.71702154
_cell_angle_gamma   90.00000000
_symmetry_Int_Tables_number   1
_chemical_formula_structural   Fe
_chemical_formula_sum   Fe2
_cell_volume   196.24677346
_cell_formula_units_Z   2
loop_
 _symmetry_equiv_pos_site_id
 _symmetry_equiv_pos_as_xyz
  1  'x, y, z'
loop_
 _atom_site_type_symbol
 _atom_site_label
 _atom_site_symmetry_multiplicity
 _atom_site_fract_x
 _atom_site_fract_y
 _atom_site_fract_z
 _atom_site_occupancy
  Fe  Fe0  1  0.25512900  0.25000000  0.51025800  1.0
  Fe  Fe1  1  0.74487100  0.75000000  0.48974200  1.0
