# generated using pymatgen
data_Mn
_symmetry_space_group_name_H-M   'P 1'
_cell_length_a   3.70576350
_cell_length_b   5.72973309
_cell_length_c   5.72972744
_cell_angle_alpha   94.07570123
_cell_angle_beta   90.00031326
_cell_angle_gamma   90.00000479
_symmetry_Int_Tables_number   1
_chemical_formula_structural   Mn
_chemical_formula_sum   Mn2
_cell_volume   121.35183250
_cell_formula_units_Z   2
loop_
 _symmetry_equiv_pos_site_id
 _symmetry_equiv_pos_as_xyz
  1  'x, y, z'
loop_
 _atom_site_type_symbol
 _atom_site_label
 _atom_site_symmetry_multiplicity
 _atom_site_fract_x
 _atom_site_fract_y
 _atom_site_fract_z
 _atom_site_occupancy
  Mn  Mn0  1  0.50001300  0.00001700  0.50002900  1.0
  Mn  Mn1  1  0.49993350  0.49998750  0.99998000  1.0
