# generated using pymatgen
data_Er
_symmetry_space_group_name_H-M   'P 1'
_cell_length_a   5.58738100
_cell_length_b   5.82207000
_cell_length_c   11.32674400
_cell_angle_alpha   90.00000000
_cell_angle_beta   90.00000000
_cell_angle_gamma   90.00000000
_symmetry_Int_Tables_number   1
_chemical_formula_structural   Er
_chemical_formula_sum   Er8
_cell_volume   368.46037889
_cell_formula_units_Z   8
loop_
 _symmetry_equiv_pos_site_id
 _symmetry_equiv_pos_as_xyz
  1  'x, y, z'
loop_
 _atom_site_type_symbol
 _atom_site_label
 _atom_site_symmetry_multiplicity
 _atom_site_fract_x
 _atom_site_fract_y
 _atom_site_fract_z
 _atom_site_occupancy
  Er  Er0  1  0.75000000  0.16095500  0.48412700  1.0
  Er  Er1  1  0.25000000  0.83904500  0.51587300  1.0
  Er  Er2  1  0.25000000  0.16095500  0.01587300  1.0
  Er  Er3  1  0.75000000  0.83904500  0.98412700  1.0
  Er  Er4  1  0.75000000  0.39840900  0.16720800  1.0
  Er  Er5  1  0.25000000  0.60159100  0.83279200  1.0
  Er  Er6  1  0.25000000  0.39840900  0.33279200  1.0
  Er  Er7  1  0.75000000  0.60159100  0.66720800  1.0
