# generated using pymatgen
data_TbRh
_symmetry_space_group_name_H-M   'P 1'
_cell_length_a   3.85151800
_cell_length_b   7.61170800
_cell_length_c   7.61170757
_cell_angle_alpha   120.00000186
_cell_angle_beta   90.00000000
_cell_angle_gamma   90.00000000
_symmetry_Int_Tables_number   1
_chemical_formula_structural   TbRh
_chemical_formula_sum   'Tb3 Rh3'
_cell_volume   193.25323378
_cell_formula_units_Z   3
loop_
 _symmetry_equiv_pos_site_id
 _symmetry_equiv_pos_as_xyz
  1  'x, y, z'
loop_
 _atom_site_type_symbol
 _atom_site_label
 _atom_site_symmetry_multiplicity
 _atom_site_fract_x
 _atom_site_fract_y
 _atom_site_fract_z
 _atom_site_occupancy
  Tb  Tb0  1  0.50000000  0.59330400  0.59330400  1.0
  Tb  Tb1  1  0.50000000  1.00000000  0.40669600  1.0
  Tb  Tb2  1  0.50000000  0.40669600  1.00000000  1.0
  Rh  Rh3  1  1.00000000  0.66666667  0.33333333  1.0
  Rh  Rh4  1  1.00000000  0.33333333  0.66666667  1.0
  Rh  Rh5  1  0.50000000  0.00000000  0.00000000  1.0
