# generated using pymatgen
data_Tm
_symmetry_space_group_name_H-M   'P 1'
_cell_length_a   4.36760600
_cell_length_b   4.36760600
_cell_length_c   8.47914369
_cell_angle_alpha   104.92473413
_cell_angle_beta   104.92473413
_cell_angle_gamma   89.99999999
_symmetry_Int_Tables_number   1
_chemical_formula_structural   Tm
_chemical_formula_sum   Tm2
_cell_volume   150.63732728
_cell_formula_units_Z   2
loop_
 _symmetry_equiv_pos_site_id
 _symmetry_equiv_pos_as_xyz
  1  'x, y, z'
loop_
 _atom_site_type_symbol
 _atom_site_label
 _atom_site_symmetry_multiplicity
 _atom_site_fract_x
 _atom_site_fract_y
 _atom_site_fract_z
 _atom_site_occupancy
  Tm  Tm0  1  0.66812100  0.66812100  0.33624200  1.0
  Tm  Tm1  1  0.33187900  0.33187900  0.66375800  1.0
