# generated using pymatgen
data_Nd2Pd
_symmetry_space_group_name_H-M   'P 1'
_cell_length_a   5.98297600
_cell_length_b   6.81248700
_cell_length_c   6.81248700
_cell_angle_alpha   90.00000000
_cell_angle_beta   90.00000000
_cell_angle_gamma   90.00000000
_symmetry_Int_Tables_number   1
_chemical_formula_structural   Nd2Pd
_chemical_formula_sum   'Nd4 Pd2'
_cell_volume   277.66979127
_cell_formula_units_Z   2
loop_
 _symmetry_equiv_pos_site_id
 _symmetry_equiv_pos_as_xyz
  1  'x, y, z'
loop_
 _atom_site_type_symbol
 _atom_site_label
 _atom_site_symmetry_multiplicity
 _atom_site_fract_x
 _atom_site_fract_y
 _atom_site_fract_z
 _atom_site_occupancy
  Nd  Nd0  1  0.50000000  0.67367800  0.17367800  1.0
  Nd  Nd1  1  0.50000000  0.17367800  0.32632200  1.0
  Nd  Nd2  1  0.50000000  0.82632200  0.67367800  1.0
  Nd  Nd3  1  0.50000000  0.32632200  0.82632200  1.0
  Pd  Pd4  1  1.00000000  1.00000000  0.50000000  1.0
  Pd  Pd5  1  1.00000000  0.50000000  0.00000000  1.0
