# generated using pymatgen
data_Co
_symmetry_space_group_name_H-M   'P 1'
_cell_length_a   2.90954981
_cell_length_b   2.91087237
_cell_length_c   14.07799055
_cell_angle_alpha   85.14677145
_cell_angle_beta   84.71270021
_cell_angle_gamma   60.77688003
_symmetry_Int_Tables_number   1
_chemical_formula_structural   Co
_chemical_formula_sum   Co2
_cell_volume   103.50554000
_cell_formula_units_Z   2
loop_
 _symmetry_equiv_pos_site_id
 _symmetry_equiv_pos_as_xyz
  1  'x, y, z'
loop_
 _atom_site_type_symbol
 _atom_site_label
 _atom_site_symmetry_multiplicity
 _atom_site_fract_x
 _atom_site_fract_y
 _atom_site_fract_z
 _atom_site_occupancy
  Co  Co0  1  0.49999500  0.50000400  0.49999200  1.0
  Co  Co1  1  0.00000700  0.99999100  0.00000900  1.0
