# generated using pymatgen
data_Co
_symmetry_space_group_name_H-M   'P 1'
_cell_length_a   3.01849600
_cell_length_b   5.15061024
_cell_length_c   15.21636600
_cell_angle_alpha   90.00000000
_cell_angle_beta   90.00000000
_cell_angle_gamma   107.03903415
_symmetry_Int_Tables_number   1
_chemical_formula_structural   Co
_chemical_formula_sum   Co8
_cell_volume   226.18613792
_cell_formula_units_Z   8
loop_
 _symmetry_equiv_pos_site_id
 _symmetry_equiv_pos_as_xyz
  1  'x, y, z'
loop_
 _atom_site_type_symbol
 _atom_site_label
 _atom_site_symmetry_multiplicity
 _atom_site_fract_x
 _atom_site_fract_y
 _atom_site_fract_z
 _atom_site_occupancy
  Co  Co0  1  0.36196400  0.72392800  0.95244100  1.0
  Co  Co1  1  0.63803600  0.27607200  0.04755900  1.0
  Co  Co2  1  0.36196400  0.72392800  0.54755900  1.0
  Co  Co3  1  0.63803600  0.27607200  0.45244100  1.0
  Co  Co4  1  0.90828400  0.81656800  0.35995400  1.0
  Co  Co5  1  0.09171600  0.18343200  0.64004600  1.0
  Co  Co6  1  0.09171600  0.18343200  0.85995400  1.0
  Co  Co7  1  0.90828400  0.81656800  0.14004600  1.0
