# generated using pymatgen
data_Ho3Ta2
_symmetry_space_group_name_H-M   'P 1'
_cell_length_a   11.12958200
_cell_length_b   11.12958222
_cell_length_c   17.70165700
_cell_angle_alpha   90.00000000
_cell_angle_beta   90.00000000
_cell_angle_gamma   119.99999934
_symmetry_Int_Tables_number   1
_chemical_formula_structural   Ho3Ta2
_chemical_formula_sum   'Ho12 Ta8'
_cell_volume   1898.90077447
_cell_formula_units_Z   4
loop_
 _symmetry_equiv_pos_site_id
 _symmetry_equiv_pos_as_xyz
  1  'x, y, z'
loop_
 _atom_site_type_symbol
 _atom_site_label
 _atom_site_symmetry_multiplicity
 _atom_site_fract_x
 _atom_site_fract_y
 _atom_site_fract_z
 _atom_site_occupancy
  Ho  Ho0  1  0.47018800  0.47018800  0.40367800  1.0
  Ho  Ho1  1  0.52981200  0.52981200  0.59632200  1.0
  Ho  Ho2  1  1.00000000  0.52981200  0.40367800  1.0
  Ho  Ho3  1  0.52981200  0.52981200  0.90367800  1.0
  Ho  Ho4  1  1.00000000  0.52981200  0.09632200  1.0
  Ho  Ho5  1  0.00000000  0.47018800  0.59632200  1.0
  Ho  Ho6  1  0.47018800  0.47018800  0.09632200  1.0
  Ho  Ho7  1  0.00000000  0.47018800  0.90367800  1.0
  Ho  Ho8  1  0.52981200  1.00000000  0.40367800  1.0
  Ho  Ho9  1  0.47018800  1.00000000  0.59632200  1.0
  Ho  Ho10  1  0.47018800  1.00000000  0.90367800  1.0
  Ho  Ho11  1  0.52981200  1.00000000  0.09632200  1.0
  Ta  Ta12  1  0.00000000  0.00000000  0.50000000  1.0
  Ta  Ta13  1  0.00000000  0.00000000  0.00000000  1.0
  Ta  Ta14  1  0.27428900  0.27428900  0.25000000  1.0
  Ta  Ta15  1  0.72571100  0.72571100  0.75000000  1.0
  Ta  Ta16  1  1.00000000  0.72571100  0.25000000  1.0
  Ta  Ta17  1  1.00000000  0.27428900  0.75000000  1.0
  Ta  Ta18  1  0.72571100  1.00000000  0.25000000  1.0
  Ta  Ta19  1  0.27428900  1.00000000  0.75000000  1.0
