# generated using pymatgen
data_Cu
_symmetry_space_group_name_H-M   'P 1'
_cell_length_a   5.71688500
_cell_length_b   7.24591700
_cell_length_c   12.28199800
_cell_angle_alpha   90.00000000
_cell_angle_beta   90.00000000
_cell_angle_gamma   90.00000000
_symmetry_Int_Tables_number   1
_chemical_formula_structural   Cu
_chemical_formula_sum   Cu4
_cell_volume   508.77039658
_cell_formula_units_Z   4
loop_
 _symmetry_equiv_pos_site_id
 _symmetry_equiv_pos_as_xyz
  1  'x, y, z'
loop_
 _atom_site_type_symbol
 _atom_site_label
 _atom_site_symmetry_multiplicity
 _atom_site_fract_x
 _atom_site_fract_y
 _atom_site_fract_z
 _atom_site_occupancy
  Cu  Cu0  1  0.75000000  0.28372200  0.33955500  1.0
  Cu  Cu1  1  0.25000000  0.71627800  0.66044500  1.0
  Cu  Cu2  1  0.25000000  0.78372200  0.16044500  1.0
  Cu  Cu3  1  0.75000000  0.21627800  0.83955500  1.0
