# generated using pymatgen
data_CeIr
_symmetry_space_group_name_H-M   'P 1'
_cell_length_a   4.23413000
_cell_length_b   4.23413000
_cell_length_c   5.74890503
_cell_angle_alpha   111.60806001
_cell_angle_beta   111.60806001
_cell_angle_gamma   89.99999999
_symmetry_Int_Tables_number   1
_chemical_formula_structural   CeIr
_chemical_formula_sum   'Ce1 Ir1'
_cell_volume   87.98538569
_cell_formula_units_Z   1
loop_
 _symmetry_equiv_pos_site_id
 _symmetry_equiv_pos_as_xyz
  1  'x, y, z'
loop_
 _atom_site_type_symbol
 _atom_site_label
 _atom_site_symmetry_multiplicity
 _atom_site_fract_x
 _atom_site_fract_y
 _atom_site_fract_z
 _atom_site_occupancy
  Ce  Ce0  1  0.99892700  0.99892700  0.99785400  1.0
  Ir  Ir1  1  0.65757600  0.65757600  0.31515200  1.0
