# generated using pymatgen
data_TlNi
_symmetry_space_group_name_H-M   'P 1'
_cell_length_a   5.35667391
_cell_length_b   5.35667391
_cell_length_c   5.37748953
_cell_angle_alpha   60.12796555
_cell_angle_beta   60.12796555
_cell_angle_gamma   60.00000116
_symmetry_Int_Tables_number   1
_chemical_formula_structural   TlNi
_chemical_formula_sum   'Tl2 Ni2'
_cell_volume   109.31815856
_cell_formula_units_Z   2
loop_
 _symmetry_equiv_pos_site_id
 _symmetry_equiv_pos_as_xyz
  1  'x, y, z'
loop_
 _atom_site_type_symbol
 _atom_site_label
 _atom_site_symmetry_multiplicity
 _atom_site_fract_x
 _atom_site_fract_y
 _atom_site_fract_z
 _atom_site_occupancy
  Tl  Tl0  1  0.26952000  0.26952000  0.19144000  1.0
  Tl  Tl1  1  0.76952000  0.76952000  0.69144000  1.0
  Ni  Ni2  1  0.00598600  0.00598600  0.98204200  1.0
  Ni  Ni3  1  0.50598600  0.50598600  0.48204200  1.0
