# generated using pymatgen
data_HoRh
_symmetry_space_group_name_H-M   'P 1'
_cell_length_a   4.24095600
_cell_length_b   6.88396700
_cell_length_c   7.40043800
_cell_angle_alpha   90.00000000
_cell_angle_beta   90.00000000
_cell_angle_gamma   90.00000000
_symmetry_Int_Tables_number   1
_chemical_formula_structural   HoRh
_chemical_formula_sum   'Ho4 Rh4'
_cell_volume   216.05283576
_cell_formula_units_Z   4
loop_
 _symmetry_equiv_pos_site_id
 _symmetry_equiv_pos_as_xyz
  1  'x, y, z'
loop_
 _atom_site_type_symbol
 _atom_site_label
 _atom_site_symmetry_multiplicity
 _atom_site_fract_x
 _atom_site_fract_y
 _atom_site_fract_z
 _atom_site_occupancy
  Ho  Ho0  1  0.25000000  0.49959100  0.68985400  1.0
  Ho  Ho1  1  0.75000000  0.50040900  0.31014600  1.0
  Ho  Ho2  1  0.25000000  0.99959100  0.81014600  1.0
  Ho  Ho3  1  0.75000000  0.00040900  0.18985400  1.0
  Rh  Rh4  1  0.75000000  0.84577300  0.56979300  1.0
  Rh  Rh5  1  0.25000000  0.15422700  0.43020700  1.0
  Rh  Rh6  1  0.75000000  0.34577300  0.93020700  1.0
  Rh  Rh7  1  0.25000000  0.65422700  0.06979300  1.0
