# generated using pymatgen
data_Fe
_symmetry_space_group_name_H-M   'P 1'
_cell_length_a   5.40178000
_cell_length_b   8.99390000
_cell_length_c   15.06791303
_cell_angle_alpha   107.36425682
_cell_angle_beta   100.32594835
_cell_angle_gamma   90.00000001
_symmetry_Int_Tables_number   1
_chemical_formula_structural   Fe
_chemical_formula_sum   Fe18
_cell_volume   686.25135019
_cell_formula_units_Z   18
loop_
 _symmetry_equiv_pos_site_id
 _symmetry_equiv_pos_as_xyz
  1  'x, y, z'
loop_
 _atom_site_type_symbol
 _atom_site_label
 _atom_site_symmetry_multiplicity
 _atom_site_fract_x
 _atom_site_fract_y
 _atom_site_fract_z
 _atom_site_occupancy
  Fe  Fe0  1  0.50000000  0.75415900  0.00000000  1.0
  Fe  Fe1  1  0.50000000  0.24584100  0.00000000  1.0
  Fe  Fe2  1  0.50000000  0.50000000  0.50000000  1.0
  Fe  Fe3  1  0.50000000  0.00000000  0.50000000  1.0
  Fe  Fe4  1  0.00000000  0.00000000  0.50000000  1.0
  Fe  Fe5  1  0.00000000  0.50000000  0.50000000  1.0
  Fe  Fe6  1  0.16652400  0.41434000  0.33304800  1.0
  Fe  Fe7  1  0.83347600  0.08129200  0.66695200  1.0
  Fe  Fe8  1  0.16652400  0.91870800  0.33304800  1.0
  Fe  Fe9  1  0.83347600  0.58566000  0.66695200  1.0
  Fe  Fe10  1  0.66683900  0.66948700  0.83285800  1.0
  Fe  Fe11  1  0.33316100  0.83662900  0.16714200  1.0
  Fe  Fe12  1  0.16601900  0.16337100  0.83285800  1.0
  Fe  Fe13  1  0.83398100  0.33051300  0.16714200  1.0
  Fe  Fe14  1  0.33316100  0.33051300  0.16714200  1.0
  Fe  Fe15  1  0.66683900  0.16337100  0.83285800  1.0
  Fe  Fe16  1  0.83398100  0.83662900  0.16714200  1.0
  Fe  Fe17  1  0.16601900  0.66948700  0.83285800  1.0
