# generated using pymatgen
data_FeCu2
_symmetry_space_group_name_H-M   'P 1'
_cell_length_a   3.97866450
_cell_length_b   3.97866450
_cell_length_c   14.35150142
_cell_angle_alpha   82.03229199
_cell_angle_beta   82.03229199
_cell_angle_gamma   59.99999163
_symmetry_Int_Tables_number   1
_chemical_formula_structural   FeCu2
_chemical_formula_sum   'Fe1 Cu2'
_cell_volume   194.20795619
_cell_formula_units_Z   1
loop_
 _symmetry_equiv_pos_site_id
 _symmetry_equiv_pos_as_xyz
  1  'x, y, z'
loop_
 _atom_site_type_symbol
 _atom_site_label
 _atom_site_symmetry_multiplicity
 _atom_site_fract_x
 _atom_site_fract_y
 _atom_site_fract_z
 _atom_site_occupancy
  Fe  Fe0  1  0.26269200  0.26269200  0.21192400  1.0
  Cu  Cu1  1  0.00096300  0.00096300  0.99711100  1.0
  Cu  Cu2  1  0.73747200  0.73747200  0.78758400  1.0
