# generated using pymatgen
data_Sm2TiMn
_symmetry_space_group_name_H-M   'P 1'
_cell_length_a   5.46903800
_cell_length_b   5.78272000
_cell_length_c   7.89418261
_cell_angle_alpha   90.00000000
_cell_angle_beta   89.70502734
_cell_angle_gamma   90.00000000
_symmetry_Int_Tables_number   1
_chemical_formula_structural   Sm2TiMn
_chemical_formula_sum   'Sm4 Ti2 Mn2'
_cell_volume   249.65744316
_cell_formula_units_Z   2
loop_
 _symmetry_equiv_pos_site_id
 _symmetry_equiv_pos_as_xyz
  1  'x, y, z'
loop_
 _atom_site_type_symbol
 _atom_site_label
 _atom_site_symmetry_multiplicity
 _atom_site_fract_x
 _atom_site_fract_y
 _atom_site_fract_z
 _atom_site_occupancy
  Sm  Sm0  1  0.98189300  0.93520600  0.74792800  1.0
  Sm  Sm1  1  0.51810700  0.43520600  0.75207200  1.0
  Sm  Sm2  1  0.01810700  0.06479400  0.25207200  1.0
  Sm  Sm3  1  0.48189300  0.56479400  0.24792800  1.0
  Ti  Ti4  1  0.50000000  0.00000000  0.50000000  1.0
  Ti  Ti5  1  1.00000000  0.50000000  0.00000000  1.0
  Mn  Mn6  1  0.00000000  0.50000000  0.50000000  1.0
  Mn  Mn7  1  0.50000000  1.00000000  1.00000000  1.0
