# generated using pymatgen
data_Mn
_symmetry_space_group_name_H-M   'P 1'
_cell_length_a   4.47528558
_cell_length_b   4.47522477
_cell_length_c   7.44028800
_cell_angle_alpha   89.99981935
_cell_angle_beta   90.00035497
_cell_angle_gamma   120.00106697
_symmetry_Int_Tables_number   1
_chemical_formula_structural   Mn
_chemical_formula_sum   Mn2
_cell_volume   129.04801108
_cell_formula_units_Z   2
loop_
 _symmetry_equiv_pos_site_id
 _symmetry_equiv_pos_as_xyz
  1  'x, y, z'
loop_
 _atom_site_type_symbol
 _atom_site_label
 _atom_site_symmetry_multiplicity
 _atom_site_fract_x
 _atom_site_fract_y
 _atom_site_fract_z
 _atom_site_occupancy
  Mn  Mn0  1  0.33333333  0.66666667  0.61383500  1.0
  Mn  Mn1  1  0.66666667  0.33333333  0.38620900  1.0
