# generated using pymatgen
data_VPb
_symmetry_space_group_name_H-M   'P 1'
_cell_length_a   3.83213000
_cell_length_b   3.83202600
_cell_length_c   4.95822701
_cell_angle_alpha   89.99988242
_cell_angle_beta   89.99362601
_cell_angle_gamma   90.00000000
_symmetry_Int_Tables_number   1
_chemical_formula_structural   VPb
_chemical_formula_sum   'V1 Pb1'
_cell_volume   72.81067958
_cell_formula_units_Z   1
loop_
 _symmetry_equiv_pos_site_id
 _symmetry_equiv_pos_as_xyz
  1  'x, y, z'
loop_
 _atom_site_type_symbol
 _atom_site_label
 _atom_site_symmetry_multiplicity
 _atom_site_fract_x
 _atom_site_fract_y
 _atom_site_fract_z
 _atom_site_occupancy
  Pb  Pb0  1  0.00000950  0.00000050  0.00835400  1.0
  V  V1  1  0.50002350  0.49999950  0.43235900  1.0
