# generated using pymatgen
data_CoRu
_symmetry_space_group_name_H-M   'P 1'
_cell_length_a   5.65065800
_cell_length_b   5.65966300
_cell_length_c   7.94216391
_cell_angle_alpha   90.00000000
_cell_angle_beta   89.86542757
_cell_angle_gamma   90.00000000
_symmetry_Int_Tables_number   1
_chemical_formula_structural   CoRu
_chemical_formula_sum   'Co2 Ru2'
_cell_volume   253.99621390
_cell_formula_units_Z   2
loop_
 _symmetry_equiv_pos_site_id
 _symmetry_equiv_pos_as_xyz
  1  'x, y, z'
loop_
 _atom_site_type_symbol
 _atom_site_label
 _atom_site_symmetry_multiplicity
 _atom_site_fract_x
 _atom_site_fract_y
 _atom_site_fract_z
 _atom_site_occupancy
  Co  Co0  1  0.00014800  0.75274700  0.00001900  1.0
  Co  Co1  1  0.50014800  0.24725300  0.50001900  1.0
  Ru  Ru2  1  0.00045200  0.74998600  0.49988500  1.0
  Ru  Ru3  1  0.50045200  0.25001400  0.99988500  1.0
