# generated using pymatgen
data_DyCu3Pb2
_symmetry_space_group_name_H-M   'P 1'
_cell_length_a   3.83396500
_cell_length_b   3.83396500
_cell_length_c   16.03081400
_cell_angle_alpha   90.00000000
_cell_angle_beta   90.00000000
_cell_angle_gamma   90.00000000
_symmetry_Int_Tables_number   1
_chemical_formula_structural   DyCu3Pb2
_chemical_formula_sum   'Dy1 Cu3 Pb2'
_cell_volume   235.64154579
_cell_formula_units_Z   1
loop_
 _symmetry_equiv_pos_site_id
 _symmetry_equiv_pos_as_xyz
  1  'x, y, z'
loop_
 _atom_site_type_symbol
 _atom_site_label
 _atom_site_symmetry_multiplicity
 _atom_site_fract_x
 _atom_site_fract_y
 _atom_site_fract_z
 _atom_site_occupancy
  Dy  Dy0  1  0.00000000  0.00000000  0.00000000  1.0
  Cu  Cu1  1  0.00000000  0.00000000  0.50000000  1.0
  Cu  Cu2  1  0.50000000  0.50000000  0.89649500  1.0
  Cu  Cu3  1  0.50000000  0.50000000  0.10350500  1.0
  Pb  Pb4  1  0.50000000  0.50000000  0.38688600  1.0
  Pb  Pb5  1  0.50000000  0.50000000  0.61311400  1.0
