# generated using pymatgen
data_Dy
_symmetry_space_group_name_H-M   'P 1'
_cell_length_a   4.45458600
_cell_length_b   6.87967800
_cell_length_c   7.69253200
_cell_angle_alpha   90.00000000
_cell_angle_beta   90.00000000
_cell_angle_gamma   90.00000000
_symmetry_Int_Tables_number   1
_chemical_formula_structural   Dy
_chemical_formula_sum   Dy4
_cell_volume   235.74623803
_cell_formula_units_Z   4
loop_
 _symmetry_equiv_pos_site_id
 _symmetry_equiv_pos_as_xyz
  1  'x, y, z'
loop_
 _atom_site_type_symbol
 _atom_site_label
 _atom_site_symmetry_multiplicity
 _atom_site_fract_x
 _atom_site_fract_y
 _atom_site_fract_z
 _atom_site_occupancy
  Dy  Dy0  1  0.25000000  0.98465500  0.30256900  1.0
  Dy  Dy1  1  0.25000000  0.48465500  0.19743100  1.0
  Dy  Dy2  1  0.75000000  0.01534500  0.69743100  1.0
  Dy  Dy3  1  0.75000000  0.51534500  0.80256900  1.0
