# generated using pymatgen
data_Tb2Rh
_symmetry_space_group_name_H-M   'P 1'
_cell_length_a   7.96985500
_cell_length_b   8.18972200
_cell_length_c   8.18972260
_cell_angle_alpha   60.00000244
_cell_angle_beta   90.00000000
_cell_angle_gamma   90.00000000
_symmetry_Int_Tables_number   1
_chemical_formula_structural   Tb2Rh
_chemical_formula_sum   'Tb8 Rh4'
_cell_volume   462.93435744
_cell_formula_units_Z   4
loop_
 _symmetry_equiv_pos_site_id
 _symmetry_equiv_pos_as_xyz
  1  'x, y, z'
loop_
 _atom_site_type_symbol
 _atom_site_label
 _atom_site_symmetry_multiplicity
 _atom_site_fract_x
 _atom_site_fract_y
 _atom_site_fract_z
 _atom_site_occupancy
  Tb  Tb0  1  0.25000000  0.00000000  0.00000000  1.0
  Tb  Tb1  1  0.75000000  0.98512500  0.50743700  1.0
  Tb  Tb2  1  0.75000000  0.50743800  0.98512400  1.0
  Tb  Tb3  1  0.75000000  0.00000000  0.00000000  1.0
  Tb  Tb4  1  0.75000000  0.50743800  0.50743700  1.0
  Tb  Tb5  1  0.25000000  0.01487500  0.49256300  1.0
  Tb  Tb6  1  0.25000000  0.49256200  0.01487600  1.0
  Tb  Tb7  1  0.25000000  0.49256200  0.49256300  1.0
  Rh  Rh8  1  0.47022200  0.66666667  0.66666667  1.0
  Rh  Rh9  1  0.52977800  0.33333333  0.33333333  1.0
  Rh  Rh10  1  0.02977800  0.66666667  0.66666667  1.0
  Rh  Rh11  1  0.97022200  0.33333333  0.33333333  1.0
