# generated using pymatgen
data_GdRh2
_symmetry_space_group_name_H-M   'P 1'
_cell_length_a   4.07597800
_cell_length_b   4.07597800
_cell_length_c   5.79522441
_cell_angle_alpha   110.58930830
_cell_angle_beta   110.58930830
_cell_angle_gamma   90.00000000
_symmetry_Int_Tables_number   1
_chemical_formula_structural   GdRh2
_chemical_formula_sum   'Gd1 Rh2'
_cell_volume   83.52827963
_cell_formula_units_Z   1
loop_
 _symmetry_equiv_pos_site_id
 _symmetry_equiv_pos_as_xyz
  1  'x, y, z'
loop_
 _atom_site_type_symbol
 _atom_site_label
 _atom_site_symmetry_multiplicity
 _atom_site_fract_x
 _atom_site_fract_y
 _atom_site_fract_z
 _atom_site_occupancy
  Gd  Gd0  1  0.00000000  0.00000000  0.00000000  1.0
  Rh  Rh1  1  0.75000000  0.25000000  0.50000000  1.0
  Rh  Rh2  1  0.25000000  0.75000000  0.50000000  1.0
