# generated using pymatgen
data_Mn
_symmetry_space_group_name_H-M   'P 1'
_cell_length_a   5.51760600
_cell_length_b   5.51760600
_cell_length_c   6.46269936
_cell_angle_alpha   115.26977724
_cell_angle_beta   115.26977722
_cell_angle_gamma   90.00000001
_symmetry_Int_Tables_number   1
_chemical_formula_structural   Mn
_chemical_formula_sum   Mn10
_cell_volume   156.85147401
_cell_formula_units_Z   10
loop_
 _symmetry_equiv_pos_site_id
 _symmetry_equiv_pos_as_xyz
  1  'x, y, z'
loop_
 _atom_site_type_symbol
 _atom_site_label
 _atom_site_symmetry_multiplicity
 _atom_site_fract_x
 _atom_site_fract_y
 _atom_site_fract_z
 _atom_site_occupancy
  Mn  Mn0  1  0.19153800  0.02991000  0.72144800  1.0
  Mn  Mn1  1  0.47009000  0.30846200  0.27855200  1.0
  Mn  Mn2  1  0.00000000  0.00000000  0.00000000  1.0
  Mn  Mn3  1  0.50000000  0.50000000  0.00000000  1.0
  Mn  Mn4  1  0.52991000  0.69153800  0.72144800  1.0
  Mn  Mn5  1  0.02991000  0.52991000  0.72144800  1.0
  Mn  Mn6  1  0.69153800  0.19153800  0.72144800  1.0
  Mn  Mn7  1  0.97009000  0.47009000  0.27855200  1.0
  Mn  Mn8  1  0.30846200  0.80846200  0.27855200  1.0
  Mn  Mn9  1  0.80846200  0.97009000  0.27855200  1.0
