# generated using pymatgen
data_Tb
_symmetry_space_group_name_H-M   'P 1'
_cell_length_a   6.61092600
_cell_length_b   9.01457600
_cell_length_c   9.01457616
_cell_angle_alpha   119.99999943
_cell_angle_beta   90.00000000
_cell_angle_gamma   90.00000000
_symmetry_Int_Tables_number   1
_chemical_formula_structural   Tb
_chemical_formula_sum   Tb10
_cell_volume   465.24696320
_cell_formula_units_Z   10
loop_
 _symmetry_equiv_pos_site_id
 _symmetry_equiv_pos_as_xyz
  1  'x, y, z'
loop_
 _atom_site_type_symbol
 _atom_site_label
 _atom_site_symmetry_multiplicity
 _atom_site_fract_x
 _atom_site_fract_y
 _atom_site_fract_z
 _atom_site_occupancy
  Tb  Tb0  1  1.00000000  0.33333333  0.66666667  1.0
  Tb  Tb1  1  1.00000000  0.66666667  0.33333333  1.0
  Tb  Tb2  1  0.50000000  0.66666667  0.33333333  1.0
  Tb  Tb3  1  0.50000000  0.33333333  0.66666667  1.0
  Tb  Tb4  1  0.25000000  0.24110300  1.00000000  1.0
  Tb  Tb5  1  0.25000000  0.75889700  0.75889700  1.0
  Tb  Tb6  1  0.25000000  1.00000000  0.24110300  1.0
  Tb  Tb7  1  0.75000000  0.75889700  0.00000000  1.0
  Tb  Tb8  1  0.75000000  0.24110300  0.24110300  1.0
  Tb  Tb9  1  0.75000000  0.00000000  0.75889700  1.0
