# generated using pymatgen
data_TbCo
_symmetry_space_group_name_H-M   'P 1'
_cell_length_a   3.95273200
_cell_length_b   3.95273085
_cell_length_c   17.04424400
_cell_angle_alpha   90.00000000
_cell_angle_beta   90.00000000
_cell_angle_gamma   120.00000962
_symmetry_Int_Tables_number   1
_chemical_formula_structural   TbCo
_chemical_formula_sum   'Tb4 Co4'
_cell_volume   230.62317418
_cell_formula_units_Z   4
loop_
 _symmetry_equiv_pos_site_id
 _symmetry_equiv_pos_as_xyz
  1  'x, y, z'
loop_
 _atom_site_type_symbol
 _atom_site_label
 _atom_site_symmetry_multiplicity
 _atom_site_fract_x
 _atom_site_fract_y
 _atom_site_fract_z
 _atom_site_occupancy
  Tb  Tb0  1  0.00000000  0.00000000  0.89646200  1.0
  Tb  Tb1  1  0.00000000  0.00000000  0.39646200  1.0
  Tb  Tb2  1  0.00000000  0.00000000  0.60353800  1.0
  Tb  Tb3  1  0.00000000  0.00000000  0.10353800  1.0
  Co  Co4  1  0.33333333  0.66666667  0.00155100  1.0
  Co  Co5  1  0.66666667  0.33333333  0.99844900  1.0
  Co  Co6  1  0.33333333  0.66666667  0.49844900  1.0
  Co  Co7  1  0.66666667  0.33333333  0.50155100  1.0
