# generated using pymatgen
data_Eu
_symmetry_space_group_name_H-M   'P 1'
_cell_length_a   4.71956800
_cell_length_b   7.58864700
_cell_length_c   8.03509100
_cell_angle_alpha   90.00000000
_cell_angle_beta   90.00000000
_cell_angle_gamma   90.00000000
_symmetry_Int_Tables_number   1
_chemical_formula_structural   Eu
_chemical_formula_sum   Eu4
_cell_volume   287.77787328
_cell_formula_units_Z   4
loop_
 _symmetry_equiv_pos_site_id
 _symmetry_equiv_pos_as_xyz
  1  'x, y, z'
loop_
 _atom_site_type_symbol
 _atom_site_label
 _atom_site_symmetry_multiplicity
 _atom_site_fract_x
 _atom_site_fract_y
 _atom_site_fract_z
 _atom_site_occupancy
  Eu  Eu0  1  0.75000000  0.48058100  0.18323000  1.0
  Eu  Eu1  1  0.25000000  0.01941900  0.68323000  1.0
  Eu  Eu2  1  0.25000000  0.51941900  0.81677000  1.0
  Eu  Eu3  1  0.75000000  0.98058100  0.31677000  1.0
