# generated using pymatgen
data_Co
_symmetry_space_group_name_H-M   'P 1'
_cell_length_a   6.00002250
_cell_length_b   6.00002250
_cell_length_c   6.00002293
_cell_angle_alpha   104.03351932
_cell_angle_beta   104.03351932
_cell_angle_gamma   104.03353221
_symmetry_Int_Tables_number   1
_chemical_formula_structural   Co
_chemical_formula_sum   Co12
_cell_volume   192.60334654
_cell_formula_units_Z   12
loop_
 _symmetry_equiv_pos_site_id
 _symmetry_equiv_pos_as_xyz
  1  'x, y, z'
loop_
 _atom_site_type_symbol
 _atom_site_label
 _atom_site_symmetry_multiplicity
 _atom_site_fract_x
 _atom_site_fract_y
 _atom_site_fract_z
 _atom_site_occupancy
  Co  Co0  1  0.13403100  0.86596900  0.50000000  1.0
  Co  Co1  1  0.86596900  0.50000000  0.13403100  1.0
  Co  Co2  1  0.50000000  0.13403100  0.86596900  1.0
  Co  Co3  1  0.13403100  0.50000000  0.86596900  1.0
  Co  Co4  1  0.50000000  0.86596900  0.13403100  1.0
  Co  Co5  1  0.86596900  0.13403100  0.50000000  1.0
  Co  Co6  1  0.18724700  0.45958200  0.45958200  1.0
  Co  Co7  1  0.45958200  0.45958200  0.18724700  1.0
  Co  Co8  1  0.45958200  0.18724700  0.45958200  1.0
  Co  Co9  1  0.81275300  0.54041800  0.54041800  1.0
  Co  Co10  1  0.54041800  0.54041800  0.81275300  1.0
  Co  Co11  1  0.54041800  0.81275300  0.54041800  1.0
