# generated using pymatgen
data_Cr
_symmetry_space_group_name_H-M   'P 1'
_cell_length_a   3.83412441
_cell_length_b   3.83412446
_cell_length_c   6.97429263
_cell_angle_alpha   105.95459893
_cell_angle_beta   105.95458991
_cell_angle_gamma   89.99999800
_symmetry_Int_Tables_number   1
_chemical_formula_structural   Cr
_chemical_formula_sum   Cr1
_cell_volume   94.46207851
_cell_formula_units_Z   1
loop_
 _symmetry_equiv_pos_site_id
 _symmetry_equiv_pos_as_xyz
  1  'x, y, z'
loop_
 _atom_site_type_symbol
 _atom_site_label
 _atom_site_symmetry_multiplicity
 _atom_site_fract_x
 _atom_site_fract_y
 _atom_site_fract_z
 _atom_site_occupancy
  Cr  Cr0  1  0.00000000  0.00000000  0.00000000  1.0
