# generated using pymatgen
data_NbNi2
_symmetry_space_group_name_H-M   'P 1'
_cell_length_a   5.12253300
_cell_length_b   8.81251500
_cell_length_c   14.49088200
_cell_angle_alpha   90.00000000
_cell_angle_beta   90.00000000
_cell_angle_gamma   90.00000000
_symmetry_Int_Tables_number   1
_chemical_formula_structural   NbNi2
_chemical_formula_sum   'Nb8 Ni16'
_cell_volume   654.15317566
_cell_formula_units_Z   8
loop_
 _symmetry_equiv_pos_site_id
 _symmetry_equiv_pos_as_xyz
  1  'x, y, z'
loop_
 _atom_site_type_symbol
 _atom_site_label
 _atom_site_symmetry_multiplicity
 _atom_site_fract_x
 _atom_site_fract_y
 _atom_site_fract_z
 _atom_site_occupancy
  Nb  Nb0  1  0.49831000  0.53084900  0.35531500  1.0
  Nb  Nb1  1  0.99831000  0.96915100  0.35531500  1.0
  Nb  Nb2  1  0.00169000  0.96915100  0.85531500  1.0
  Nb  Nb3  1  0.50169000  0.53084900  0.85531500  1.0
  Nb  Nb4  1  0.49831000  0.46915100  0.14468500  1.0
  Nb  Nb5  1  0.99831000  0.03084900  0.14468500  1.0
  Nb  Nb6  1  0.50169000  0.46915100  0.64468500  1.0
  Nb  Nb7  1  0.00169000  0.03084900  0.64468500  1.0
  Ni  Ni8  1  0.99453000  0.66471700  0.00293300  1.0
  Ni  Ni9  1  0.50102800  0.83724300  0.18674800  1.0
  Ni  Ni10  1  0.50547000  0.16471700  0.99706700  1.0
  Ni  Ni11  1  0.99897200  0.33724300  0.81325200  1.0
  Ni  Ni12  1  0.49453000  0.83528300  0.00293300  1.0
  Ni  Ni13  1  0.49897200  0.16275700  0.81325200  1.0
  Ni  Ni14  1  0.50547000  0.83528300  0.50293300  1.0
  Ni  Ni15  1  0.50102800  0.16275700  0.31325200  1.0
  Ni  Ni16  1  0.00102800  0.33724300  0.31325200  1.0
  Ni  Ni17  1  0.00102800  0.66275700  0.18674800  1.0
  Ni  Ni18  1  0.49453000  0.16471700  0.49706700  1.0
  Ni  Ni19  1  0.00547000  0.33528300  0.99706700  1.0
  Ni  Ni20  1  0.99453000  0.33528300  0.49706700  1.0
  Ni  Ni21  1  0.99897200  0.66275700  0.68674800  1.0
  Ni  Ni22  1  0.49897200  0.83724300  0.68674800  1.0
  Ni  Ni23  1  0.00547000  0.66471700  0.50293300  1.0
