# generated using pymatgen
data_GdNi2
_symmetry_space_group_name_H-M   'P 1'
_cell_length_a   7.76419834
_cell_length_b   7.76419834
_cell_length_c   7.76419834
_cell_angle_alpha   109.47122063
_cell_angle_beta   109.47122064
_cell_angle_gamma   109.47122064
_symmetry_Int_Tables_number   1
_chemical_formula_structural   GdNi2
_chemical_formula_sum   'Gd6 Ni12'
_cell_volume   360.30307835
_cell_formula_units_Z   6
loop_
 _symmetry_equiv_pos_site_id
 _symmetry_equiv_pos_as_xyz
  1  'x, y, z'
loop_
 _atom_site_type_symbol
 _atom_site_label
 _atom_site_symmetry_multiplicity
 _atom_site_fract_x
 _atom_site_fract_y
 _atom_site_fract_z
 _atom_site_occupancy
  Gd  Gd0  1  0.00000000  0.29242000  0.29242000  1.0
  Gd  Gd1  1  0.70758000  1.00000000  0.70758000  1.0
  Gd  Gd2  1  0.29242000  1.00000000  0.29242000  1.0
  Gd  Gd3  1  0.29242000  0.29242000  1.00000000  1.0
  Gd  Gd4  1  0.00000000  0.70758000  0.70758000  1.0
  Gd  Gd5  1  0.70758000  0.70758000  1.00000000  1.0
  Ni  Ni6  1  0.00000000  0.66643000  0.33357000  1.0
  Ni  Ni7  1  0.66643000  0.33286000  0.66643000  1.0
  Ni  Ni8  1  0.33357000  0.33357000  0.66714000  1.0
  Ni  Ni9  1  0.66643000  0.66643000  0.33286000  1.0
  Ni  Ni10  1  0.33357000  0.66643100  0.00000000  1.0
  Ni  Ni11  1  0.00000000  0.33357000  0.66643000  1.0
  Ni  Ni12  1  0.66643000  0.33356900  0.00000000  1.0
  Ni  Ni13  1  0.33357000  0.66714000  0.33357000  1.0
  Ni  Ni14  1  0.33286100  0.66643100  0.66643100  1.0
  Ni  Ni15  1  0.66643000  1.00000000  0.33356900  1.0
  Ni  Ni16  1  0.66713900  0.33356900  0.33356900  1.0
  Ni  Ni17  1  0.33357000  1.00000000  0.66643100  1.0
