# generated using pymatgen
data_Ce
_symmetry_space_group_name_H-M   'P 1'
_cell_length_a   4.19157200
_cell_length_b   11.13364966
_cell_length_c   11.13364966
_cell_angle_alpha   64.96657029
_cell_angle_beta   79.14997362
_cell_angle_gamma   79.14997359
_symmetry_Int_Tables_number   1
_chemical_formula_structural   Ce
_chemical_formula_sum   Ce2
_cell_volume   458.89973160
_cell_formula_units_Z   2
loop_
 _symmetry_equiv_pos_site_id
 _symmetry_equiv_pos_as_xyz
  1  'x, y, z'
loop_
 _atom_site_type_symbol
 _atom_site_label
 _atom_site_symmetry_multiplicity
 _atom_site_fract_x
 _atom_site_fract_y
 _atom_site_fract_z
 _atom_site_occupancy
  Ce  Ce0  1  0.22794500  0.77205500  0.77205500  1.0
  Ce  Ce1  1  0.77205500  0.22794500  0.22794500  1.0
