# generated using pymatgen
data_CoRe
_symmetry_space_group_name_H-M   'P 1'
_cell_length_a   5.63701979
_cell_length_b   5.65881107
_cell_length_c   8.00350251
_cell_angle_alpha   89.96593324
_cell_angle_beta   90.01244648
_cell_angle_gamma   89.90816677
_symmetry_Int_Tables_number   1
_chemical_formula_structural   CoRe
_chemical_formula_sum   'Co2 Re2'
_cell_volume   255.30198659
_cell_formula_units_Z   2
loop_
 _symmetry_equiv_pos_site_id
 _symmetry_equiv_pos_as_xyz
  1  'x, y, z'
loop_
 _atom_site_type_symbol
 _atom_site_label
 _atom_site_symmetry_multiplicity
 _atom_site_fract_x
 _atom_site_fract_y
 _atom_site_fract_z
 _atom_site_occupancy
  Co  Co0  1  0.99993050  0.50036200  0.49995300  1.0
  Co  Co1  1  0.49984800  0.99955100  0.99969700  1.0
  Re  Re2  1  0.50001850  0.99988250  0.50051400  1.0
  Re  Re3  1  0.00001700  0.50013500  0.99949400  1.0
