# generated using pymatgen
data_Tm3V2
_symmetry_space_group_name_H-M   'P 1'
_cell_length_a   10.96773800
_cell_length_b   10.96773737
_cell_length_c   17.49252500
_cell_angle_alpha   90.00000000
_cell_angle_beta   90.00000000
_cell_angle_gamma   120.00000191
_symmetry_Int_Tables_number   1
_chemical_formula_structural   Tm3V2
_chemical_formula_sum   'Tm12 V8'
_cell_volume   1822.28892813
_cell_formula_units_Z   4
loop_
 _symmetry_equiv_pos_site_id
 _symmetry_equiv_pos_as_xyz
  1  'x, y, z'
loop_
 _atom_site_type_symbol
 _atom_site_label
 _atom_site_symmetry_multiplicity
 _atom_site_fract_x
 _atom_site_fract_y
 _atom_site_fract_z
 _atom_site_occupancy
  Tm  Tm0  1  0.46910500  0.46910500  0.40391900  1.0
  Tm  Tm1  1  0.53089500  0.53089500  0.59608100  1.0
  Tm  Tm2  1  0.00000000  0.53089500  0.40391900  1.0
  Tm  Tm3  1  0.53089500  0.53089500  0.90391900  1.0
  Tm  Tm4  1  0.00000000  0.53089500  0.09608100  1.0
  Tm  Tm5  1  0.00000000  0.46910500  0.59608100  1.0
  Tm  Tm6  1  0.46910500  0.46910500  0.09608100  1.0
  Tm  Tm7  1  0.00000000  0.46910500  0.90391900  1.0
  Tm  Tm8  1  0.53089500  0.00000000  0.40391900  1.0
  Tm  Tm9  1  0.46910500  0.00000000  0.59608100  1.0
  Tm  Tm10  1  0.46910500  0.00000000  0.90391900  1.0
  Tm  Tm11  1  0.53089500  0.00000000  0.09608100  1.0
  V  V12  1  0.00000000  0.00000000  0.50000000  1.0
  V  V13  1  0.00000000  0.00000000  0.00000000  1.0
  V  V14  1  0.27036000  0.27036000  0.25000000  1.0
  V  V15  1  0.72964000  0.72964000  0.75000000  1.0
  V  V16  1  0.00000000  0.72964000  0.25000000  1.0
  V  V17  1  0.00000000  0.27036000  0.75000000  1.0
  V  V18  1  0.72964000  1.00000000  0.25000000  1.0
  V  V19  1  0.27036000  1.00000000  0.75000000  1.0
