# generated using pymatgen
data_Fe
_symmetry_space_group_name_H-M   'P 1'
_cell_length_a   4.32222400
_cell_length_b   4.65877000
_cell_length_c   4.65876985
_cell_angle_alpha   120.00000105
_cell_angle_beta   90.00000000
_cell_angle_gamma   90.00000000
_symmetry_Int_Tables_number   1
_chemical_formula_structural   Fe
_chemical_formula_sum   Fe6
_cell_volume   81.24196587
_cell_formula_units_Z   6
loop_
 _symmetry_equiv_pos_site_id
 _symmetry_equiv_pos_as_xyz
  1  'x, y, z'
loop_
 _atom_site_type_symbol
 _atom_site_label
 _atom_site_symmetry_multiplicity
 _atom_site_fract_x
 _atom_site_fract_y
 _atom_site_fract_z
 _atom_site_occupancy
  Fe  Fe0  1  1.00000000  0.32682100  1.00000000  1.0
  Fe  Fe1  1  0.50000000  1.00000000  0.67317900  1.0
  Fe  Fe2  1  0.50000000  0.32682100  0.32682100  1.0
  Fe  Fe3  1  0.50000000  0.67317900  1.00000000  1.0
  Fe  Fe4  1  1.00000000  0.00000000  0.32682100  1.0
  Fe  Fe5  1  0.00000000  0.67317900  0.67317900  1.0
