# generated using pymatgen
data_GdCu2
_symmetry_space_group_name_H-M   'P 1'
_cell_length_a   4.10316800
_cell_length_b   4.10924722
_cell_length_c   5.90122139
_cell_angle_alpha   109.90287584
_cell_angle_beta   110.34389832
_cell_angle_gamma   90.00000000
_symmetry_Int_Tables_number   1
_chemical_formula_structural   GdCu2
_chemical_formula_sum   'Gd1 Cu2'
_cell_volume   86.92722440
_cell_formula_units_Z   1
loop_
 _symmetry_equiv_pos_site_id
 _symmetry_equiv_pos_as_xyz
  1  'x, y, z'
loop_
 _atom_site_type_symbol
 _atom_site_label
 _atom_site_symmetry_multiplicity
 _atom_site_fract_x
 _atom_site_fract_y
 _atom_site_fract_z
 _atom_site_occupancy
  Gd  Gd0  1  0.00000000  0.00000000  0.00000000  1.0
  Cu  Cu1  1  0.75021000  0.22957700  0.50042000  1.0
  Cu  Cu2  1  0.24979000  0.77042300  0.49958000  1.0
