# generated using pymatgen
data_Dy3Cu4
_symmetry_space_group_name_H-M   'P 1'
_cell_length_a   4.46612200
_cell_length_b   6.95732400
_cell_length_c   8.44270189
_cell_angle_alpha   114.33253592
_cell_angle_beta   105.33700804
_cell_angle_gamma   89.99999999
_symmetry_Int_Tables_number   1
_chemical_formula_structural   Dy3Cu4
_chemical_formula_sum   'Dy3 Cu4'
_cell_volume   228.73817702
_cell_formula_units_Z   1
loop_
 _symmetry_equiv_pos_site_id
 _symmetry_equiv_pos_as_xyz
  1  'x, y, z'
loop_
 _atom_site_type_symbol
 _atom_site_label
 _atom_site_symmetry_multiplicity
 _atom_site_fract_x
 _atom_site_fract_y
 _atom_site_fract_z
 _atom_site_occupancy
  Dy  Dy0  1  0.00000000  0.00000000  0.00000000  1.0
  Dy  Dy1  1  0.13125200  0.63125200  0.26250400  1.0
  Dy  Dy2  1  0.86874800  0.36874800  0.73749600  1.0
  Cu  Cu3  1  0.67060100  0.98238700  0.34120100  1.0
  Cu  Cu4  1  0.32939900  0.01761300  0.65879900  1.0
  Cu  Cu5  1  0.67060000  0.35881400  0.34120000  1.0
  Cu  Cu6  1  0.32940000  0.64118600  0.65880000  1.0
