# generated using pymatgen
data_Nd3V2
_symmetry_space_group_name_H-M   'P 1'
_cell_length_a   11.06946000
_cell_length_b   11.06945951
_cell_length_c   17.83025300
_cell_angle_alpha   90.00000000
_cell_angle_beta   90.00000000
_cell_angle_gamma   120.00000147
_symmetry_Int_Tables_number   1
_chemical_formula_structural   Nd3V2
_chemical_formula_sum   'Nd12 V8'
_cell_volume   1892.08647883
_cell_formula_units_Z   4
loop_
 _symmetry_equiv_pos_site_id
 _symmetry_equiv_pos_as_xyz
  1  'x, y, z'
loop_
 _atom_site_type_symbol
 _atom_site_label
 _atom_site_symmetry_multiplicity
 _atom_site_fract_x
 _atom_site_fract_y
 _atom_site_fract_z
 _atom_site_occupancy
  Nd  Nd0  1  0.47145700  0.47145700  0.40445400  1.0
  Nd  Nd1  1  0.52854300  0.52854300  0.59554600  1.0
  Nd  Nd2  1  0.00000000  0.52854300  0.40445400  1.0
  Nd  Nd3  1  0.52854300  0.52854300  0.90445400  1.0
  Nd  Nd4  1  0.00000000  0.52854300  0.09554600  1.0
  Nd  Nd5  1  0.00000000  0.47145700  0.59554600  1.0
  Nd  Nd6  1  0.47145700  0.47145700  0.09554600  1.0
  Nd  Nd7  1  0.00000000  0.47145700  0.90445400  1.0
  Nd  Nd8  1  0.52854300  0.00000000  0.40445400  1.0
  Nd  Nd9  1  0.47145700  1.00000000  0.59554600  1.0
  Nd  Nd10  1  0.47145700  1.00000000  0.90445400  1.0
  Nd  Nd11  1  0.52854300  0.00000000  0.09554600  1.0
  V  V12  1  0.00000000  0.00000000  0.50000000  1.0
  V  V13  1  0.00000000  0.00000000  0.00000000  1.0
  V  V14  1  0.26742000  0.26742000  0.25000000  1.0
  V  V15  1  0.73258000  0.73258000  0.75000000  1.0
  V  V16  1  0.00000000  0.73258000  0.25000000  1.0
  V  V17  1  0.00000000  0.26742000  0.75000000  1.0
  V  V18  1  0.73258000  1.00000000  0.25000000  1.0
  V  V19  1  0.26742000  1.00000000  0.75000000  1.0
