# generated using pymatgen
data_CoRe
_symmetry_space_group_name_H-M   'P 1'
_cell_length_a   5.79049977
_cell_length_b   5.79319896
_cell_length_c   5.79334859
_cell_angle_alpha   60.02476231
_cell_angle_beta   60.01830686
_cell_angle_gamma   60.06224670
_symmetry_Int_Tables_number   1
_chemical_formula_structural   CoRe
_chemical_formula_sum   'Co1 Re1'
_cell_volume   137.52905475
_cell_formula_units_Z   1
loop_
 _symmetry_equiv_pos_site_id
 _symmetry_equiv_pos_as_xyz
  1  'x, y, z'
loop_
 _atom_site_type_symbol
 _atom_site_label
 _atom_site_symmetry_multiplicity
 _atom_site_fract_x
 _atom_site_fract_y
 _atom_site_fract_z
 _atom_site_occupancy
  Co  Co0  1  0.00017300  0.99980225  0.99977325  1.0
  Re  Re1  1  0.49990875  0.50007950  0.50008600  1.0
