# generated using pymatgen
data_CrPd
_symmetry_space_group_name_H-M   'P 1'
_cell_length_a   2.99798428
_cell_length_b   2.99798023
_cell_length_c   6.33180766
_cell_angle_alpha   76.44801019
_cell_angle_beta   76.44818554
_cell_angle_gamma   60.17807301
_symmetry_Int_Tables_number   1
_chemical_formula_structural   CrPd
_chemical_formula_sum   'Cr1 Pd1'
_cell_volume   47.52831100
_cell_formula_units_Z   1
loop_
 _symmetry_equiv_pos_site_id
 _symmetry_equiv_pos_as_xyz
  1  'x, y, z'
loop_
 _atom_site_type_symbol
 _atom_site_label
 _atom_site_symmetry_multiplicity
 _atom_site_fract_x
 _atom_site_fract_y
 _atom_site_fract_z
 _atom_site_occupancy
  Cr  Cr0  1  0.50000150  0.49999950  0.49999925  1.0
  Pd  Pd1  1  0.99999925  0.00000075  0.00000075  1.0
