# generated using pymatgen
data_FePb
_symmetry_space_group_name_H-M   'P 1'
_cell_length_a   5.46259600
_cell_length_b   8.44761400
_cell_length_c   13.01982727
_cell_angle_alpha   90.00000000
_cell_angle_beta   90.71517795
_cell_angle_gamma   90.00000000
_symmetry_Int_Tables_number   1
_chemical_formula_structural   FePb
_chemical_formula_sum   'Fe4 Pb4'
_cell_volume   600.76487479
_cell_formula_units_Z   4
loop_
 _symmetry_equiv_pos_site_id
 _symmetry_equiv_pos_as_xyz
  1  'x, y, z'
loop_
 _atom_site_type_symbol
 _atom_site_label
 _atom_site_symmetry_multiplicity
 _atom_site_fract_x
 _atom_site_fract_y
 _atom_site_fract_z
 _atom_site_occupancy
  Fe  Fe0  1  0.18019600  0.65008300  0.10573300  1.0
  Fe  Fe1  1  0.31980400  0.15008300  0.39426700  1.0
  Fe  Fe2  1  0.81980400  0.34991700  0.89426700  1.0
  Fe  Fe3  1  0.68019600  0.84991700  0.60573300  1.0
  Pb  Pb4  1  0.78758300  0.32468800  0.22163100  1.0
  Pb  Pb5  1  0.28758300  0.17531200  0.72163100  1.0
  Pb  Pb6  1  0.21241700  0.67531200  0.77836900  1.0
  Pb  Pb7  1  0.71241700  0.82468800  0.27836900  1.0
