# generated using pymatgen
data_Tb3Cu4
_symmetry_space_group_name_H-M   'P 1'
_cell_length_a   4.21458000
_cell_length_b   6.67356600
_cell_length_c   8.02813703
_cell_angle_alpha   114.55937667
_cell_angle_beta   105.21774533
_cell_angle_gamma   89.99999999
_symmetry_Int_Tables_number   1
_chemical_formula_structural   Tb3Cu4
_chemical_formula_sum   'Tb3 Cu4'
_cell_volume   196.63505479
_cell_formula_units_Z   1
loop_
 _symmetry_equiv_pos_site_id
 _symmetry_equiv_pos_as_xyz
  1  'x, y, z'
loop_
 _atom_site_type_symbol
 _atom_site_label
 _atom_site_symmetry_multiplicity
 _atom_site_fract_x
 _atom_site_fract_y
 _atom_site_fract_z
 _atom_site_occupancy
  Tb  Tb0  1  0.13047500  0.13047500  0.26095000  1.0
  Tb  Tb1  1  0.86952500  0.86952500  0.73905000  1.0
  Tb  Tb2  1  1.00000000  0.50000000  1.00000000  1.0
  Cu  Cu3  1  0.33154800  0.14254500  0.66309600  1.0
  Cu  Cu4  1  0.66845200  0.85745500  0.33690400  1.0
  Cu  Cu5  1  0.33154800  0.52055100  0.66309600  1.0
  Cu  Cu6  1  0.66845200  0.47944900  0.33690400  1.0
