# generated using pymatgen
data_V3Co2
_symmetry_space_group_name_H-M   'P 1'
_cell_length_a   10.94507554
_cell_length_b   10.94507554
_cell_length_c   10.94507554
_cell_angle_alpha   109.62438356
_cell_angle_beta   109.39469350
_cell_angle_gamma   109.39469350
_symmetry_Int_Tables_number   1
_chemical_formula_structural   V3Co2
_chemical_formula_sum   'V12 Co8'
_cell_volume   1009.32741785
_cell_formula_units_Z   4
loop_
 _symmetry_equiv_pos_site_id
 _symmetry_equiv_pos_as_xyz
  1  'x, y, z'
loop_
 _atom_site_type_symbol
 _atom_site_label
 _atom_site_symmetry_multiplicity
 _atom_site_fract_x
 _atom_site_fract_y
 _atom_site_fract_z
 _atom_site_occupancy
  V  V0  1  0.37629900  0.00129900  0.12500000  1.0
  V  V1  1  0.00000000  0.00000000  0.00000000  1.0
  V  V2  1  0.50000000  0.75000000  0.25000000  1.0
  V  V3  1  0.87629900  0.87500000  0.25129900  1.0
  V  V4  1  0.37629900  0.87500000  0.75129900  1.0
  V  V5  1  0.62370100  0.74870100  0.62500000  1.0
  V  V6  1  0.87629900  0.50129900  0.12500000  1.0
  V  V7  1  0.62370100  0.37500000  0.49870100  1.0
  V  V8  1  0.12370100  0.37500000  0.99870100  1.0
  V  V9  1  1.00000000  0.50000000  0.50000000  1.0
  V  V10  1  0.50000000  0.25000000  0.75000000  1.0
  V  V11  1  0.12370100  0.24870100  0.62500000  1.0
  Co  Co12  1  0.75000000  0.62500000  0.87500000  1.0
  Co  Co13  1  0.25000000  0.12500000  0.87500000  1.0
  Co  Co14  1  0.75000000  0.62500000  0.37500000  1.0
  Co  Co15  1  0.25000000  0.62500000  0.37500000  1.0
  Co  Co16  1  0.75000000  0.12500000  0.87500000  1.0
  Co  Co17  1  0.25000000  0.62500000  0.87500000  1.0
  Co  Co18  1  0.75000000  0.12500000  0.37500000  1.0
  Co  Co19  1  0.25000000  0.12500000  0.37500000  1.0
