# generated using pymatgen
data_U
_symmetry_space_group_name_H-M   'P 1'
_cell_length_a   7.03773400
_cell_length_b   7.48108800
_cell_length_c   8.37120670
_cell_angle_alpha   116.54076973
_cell_angle_beta   114.85691472
_cell_angle_gamma   90.00000000
_symmetry_Int_Tables_number   1
_chemical_formula_structural   U
_chemical_formula_sum   U6
_cell_volume   348.05932430
_cell_formula_units_Z   6
loop_
 _symmetry_equiv_pos_site_id
 _symmetry_equiv_pos_as_xyz
  1  'x, y, z'
loop_
 _atom_site_type_symbol
 _atom_site_label
 _atom_site_symmetry_multiplicity
 _atom_site_fract_x
 _atom_site_fract_y
 _atom_site_fract_z
 _atom_site_occupancy
  U  U0  1  0.44980300  0.73513100  0.90308600  1.0
  U  U1  1  0.54671700  0.26486900  0.09691400  1.0
  U  U2  1  0.94980400  0.66795600  0.90308700  1.0
  U  U3  1  0.04671600  0.33204400  0.09691300  1.0
  U  U4  1  0.25111700  0.88437800  0.50000000  1.0
  U  U5  1  0.75111700  0.11562200  0.50000000  1.0
