# generated using pymatgen
data_Hg
_symmetry_space_group_name_H-M   'P 1'
_cell_length_a   5.29878800
_cell_length_b   6.80163616
_cell_length_c   6.80163616
_cell_angle_alpha   74.52113560
_cell_angle_beta   67.07517511
_cell_angle_gamma   67.07517511
_symmetry_Int_Tables_number   1
_chemical_formula_structural   Hg
_chemical_formula_sum   Hg4
_cell_volume   206.01522036
_cell_formula_units_Z   4
loop_
 _symmetry_equiv_pos_site_id
 _symmetry_equiv_pos_as_xyz
  1  'x, y, z'
loop_
 _atom_site_type_symbol
 _atom_site_label
 _atom_site_symmetry_multiplicity
 _atom_site_fract_x
 _atom_site_fract_y
 _atom_site_fract_z
 _atom_site_occupancy
  Hg  Hg0  1  0.33699100  0.60889300  0.71712600  1.0
  Hg  Hg1  1  0.66300900  0.39110700  0.28287400  1.0
  Hg  Hg2  1  0.33699000  0.21712700  0.10889300  1.0
  Hg  Hg3  1  0.66301000  0.78287300  0.89110700  1.0
