# generated using pymatgen
data_DyCo
_symmetry_space_group_name_H-M   'P 1'
_cell_length_a   5.23396200
_cell_length_b   5.70056700
_cell_length_c   7.35462000
_cell_angle_alpha   90.00000000
_cell_angle_beta   90.00000000
_cell_angle_gamma   90.00000000
_symmetry_Int_Tables_number   1
_chemical_formula_structural   DyCo
_chemical_formula_sum   'Dy4 Co4'
_cell_volume   219.43649513
_cell_formula_units_Z   4
loop_
 _symmetry_equiv_pos_site_id
 _symmetry_equiv_pos_as_xyz
  1  'x, y, z'
loop_
 _atom_site_type_symbol
 _atom_site_label
 _atom_site_symmetry_multiplicity
 _atom_site_fract_x
 _atom_site_fract_y
 _atom_site_fract_z
 _atom_site_occupancy
  Dy  Dy0  1  0.52436400  0.58317500  0.25000000  1.0
  Dy  Dy1  1  0.97563600  0.08317500  0.25000000  1.0
  Dy  Dy2  1  0.47563600  0.41682500  0.75000000  1.0
  Dy  Dy3  1  0.02436400  0.91682500  0.75000000  1.0
  Co  Co4  1  0.00000000  0.50000000  0.00000000  1.0
  Co  Co5  1  0.50000000  0.00000000  0.50000000  1.0
  Co  Co6  1  0.00000000  0.50000000  0.50000000  1.0
  Co  Co7  1  0.50000000  0.00000000  0.00000000  1.0
