# generated using pymatgen
data_Pr2Mn
_symmetry_space_group_name_H-M   'P 1'
_cell_length_a   7.96971000
_cell_length_b   8.90016398
_cell_length_c   7.96971000
_cell_angle_alpha   63.40197489
_cell_angle_beta   89.99999999
_cell_angle_gamma   116.59802510
_symmetry_Int_Tables_number   1
_chemical_formula_structural   Pr2Mn
_chemical_formula_sum   'Pr4 Mn2'
_cell_volume   437.54731206
_cell_formula_units_Z   2
loop_
 _symmetry_equiv_pos_site_id
 _symmetry_equiv_pos_as_xyz
  1  'x, y, z'
loop_
 _atom_site_type_symbol
 _atom_site_label
 _atom_site_symmetry_multiplicity
 _atom_site_fract_x
 _atom_site_fract_y
 _atom_site_fract_z
 _atom_site_occupancy
  Pr  Pr0  1  0.83809700  0.00000000  0.66190300  1.0
  Pr  Pr1  1  0.66190300  0.99999900  0.16190400  1.0
  Pr  Pr2  1  0.33809700  0.00000100  0.83809600  1.0
  Pr  Pr3  1  0.16190300  0.00000000  0.33809700  1.0
  Mn  Mn4  1  0.25000000  0.50000000  0.25000000  1.0
  Mn  Mn5  1  0.75000000  0.50000000  0.75000000  1.0
