# generated using pymatgen
data_HoMn
_symmetry_space_group_name_H-M   'P 1'
_cell_length_a   6.19824800
_cell_length_b   6.19824867
_cell_length_c   11.53951900
_cell_angle_alpha   90.00000000
_cell_angle_beta   90.00000000
_cell_angle_gamma   119.99999642
_symmetry_Int_Tables_number   1
_chemical_formula_structural   HoMn
_chemical_formula_sum   'Ho6 Mn6'
_cell_volume   383.93375703
_cell_formula_units_Z   6
loop_
 _symmetry_equiv_pos_site_id
 _symmetry_equiv_pos_as_xyz
  1  'x, y, z'
loop_
 _atom_site_type_symbol
 _atom_site_label
 _atom_site_symmetry_multiplicity
 _atom_site_fract_x
 _atom_site_fract_y
 _atom_site_fract_z
 _atom_site_occupancy
  Ho  Ho0  1  0.33333333  0.66666667  0.76970600  1.0
  Ho  Ho1  1  0.66666667  0.33333333  0.26970600  1.0
  Ho  Ho2  1  0.33333333  0.66666667  0.26970600  1.0
  Ho  Ho3  1  0.66666667  0.33333333  0.76970600  1.0
  Ho  Ho4  1  0.00000000  0.00000000  0.22598300  1.0
  Ho  Ho5  1  0.00000000  0.00000000  0.72598300  1.0
  Mn  Mn6  1  0.33346700  0.33346700  0.50080600  1.0
  Mn  Mn7  1  0.33346700  0.00000000  0.00080600  1.0
  Mn  Mn8  1  0.00000000  0.33346700  0.00080600  1.0
  Mn  Mn9  1  1.00000000  0.66653300  0.50080600  1.0
  Mn  Mn10  1  0.66653300  0.00000000  0.50080600  1.0
  Mn  Mn11  1  0.66653300  0.66653300  0.00080600  1.0
