# generated using pymatgen
data_Er
_symmetry_space_group_name_H-M   'P 1'
_cell_length_a   4.23065800
_cell_length_b   9.55925485
_cell_length_c   15.26673500
_cell_angle_alpha   90.00000000
_cell_angle_beta   90.00000000
_cell_angle_gamma   102.78457553
_symmetry_Int_Tables_number   1
_chemical_formula_structural   Er
_chemical_formula_sum   Er8
_cell_volume   602.10995768
_cell_formula_units_Z   8
loop_
 _symmetry_equiv_pos_site_id
 _symmetry_equiv_pos_as_xyz
  1  'x, y, z'
loop_
 _atom_site_type_symbol
 _atom_site_label
 _atom_site_symmetry_multiplicity
 _atom_site_fract_x
 _atom_site_fract_y
 _atom_site_fract_z
 _atom_site_occupancy
  Er  Er0  1  0.98215700  0.96431400  0.23644600  1.0
  Er  Er1  1  0.01784300  0.03568600  0.73644600  1.0
  Er  Er2  1  0.82527800  0.65055600  0.68128200  1.0
  Er  Er3  1  0.17472200  0.34944400  0.18128200  1.0
  Er  Er4  1  0.83284700  0.66569400  0.04012200  1.0
  Er  Er5  1  0.16715300  0.33430600  0.54012200  1.0
  Er  Er6  1  0.96730900  0.93461800  0.50016300  1.0
  Er  Er7  1  0.03269100  0.06538200  0.00016300  1.0
