# generated using pymatgen
data_Tb
_symmetry_space_group_name_H-M   'P 1'
_cell_length_a   4.26697800
_cell_length_b   9.50275621
_cell_length_c   15.84671700
_cell_angle_alpha   90.00000000
_cell_angle_beta   90.00000000
_cell_angle_gamma   102.97422203
_symmetry_Int_Tables_number   1
_chemical_formula_structural   Tb
_chemical_formula_sum   Tb8
_cell_volume   626.14986357
_cell_formula_units_Z   8
loop_
 _symmetry_equiv_pos_site_id
 _symmetry_equiv_pos_as_xyz
  1  'x, y, z'
loop_
 _atom_site_type_symbol
 _atom_site_label
 _atom_site_symmetry_multiplicity
 _atom_site_fract_x
 _atom_site_fract_y
 _atom_site_fract_z
 _atom_site_occupancy
  Tb  Tb0  1  0.67958000  0.35916000  0.49194800  1.0
  Tb  Tb1  1  0.46706600  0.93413200  0.17877100  1.0
  Tb  Tb2  1  0.32769700  0.65539400  0.63338900  1.0
  Tb  Tb3  1  0.32042000  0.64084000  0.99194800  1.0
  Tb  Tb4  1  0.53293400  0.06586800  0.67877100  1.0
  Tb  Tb5  1  0.53329700  0.06659400  0.94926200  1.0
  Tb  Tb6  1  0.46670300  0.93340600  0.44926200  1.0
  Tb  Tb7  1  0.67230300  0.34460600  0.13338900  1.0
