# generated using pymatgen
data_Eu
_symmetry_space_group_name_H-M   'P 1'
_cell_length_a   4.64189800
_cell_length_b   5.92119149
_cell_length_c   5.92119149
_cell_angle_alpha   77.73333378
_cell_angle_beta   66.92265990
_cell_angle_gamma   66.92265991
_symmetry_Int_Tables_number   1
_chemical_formula_structural   Eu
_chemical_formula_sum   Eu2
_cell_volume   137.40927516
_cell_formula_units_Z   2
loop_
 _symmetry_equiv_pos_site_id
 _symmetry_equiv_pos_as_xyz
  1  'x, y, z'
loop_
 _atom_site_type_symbol
 _atom_site_label
 _atom_site_symmetry_multiplicity
 _atom_site_fract_x
 _atom_site_fract_y
 _atom_site_fract_z
 _atom_site_occupancy
  Eu  Eu0  1  0.70316700  0.79683300  0.79683300  1.0
  Eu  Eu1  1  0.63175200  0.36824800  0.36824800  1.0
