# generated using pymatgen
data_Fe
_symmetry_space_group_name_H-M   'P 1'
_cell_length_a   4.38764000
_cell_length_b   6.76178891
_cell_length_c   6.76178891
_cell_angle_alpha   83.95763848
_cell_angle_beta   71.06812320
_cell_angle_gamma   71.06812319
_symmetry_Int_Tables_number   1
_chemical_formula_structural   Fe
_chemical_formula_sum   Fe12
_cell_volume   179.49371488
_cell_formula_units_Z   12
loop_
 _symmetry_equiv_pos_site_id
 _symmetry_equiv_pos_as_xyz
  1  'x, y, z'
loop_
 _atom_site_type_symbol
 _atom_site_label
 _atom_site_symmetry_multiplicity
 _atom_site_fract_x
 _atom_site_fract_y
 _atom_site_fract_z
 _atom_site_occupancy
  Fe  Fe0  1  0.97914100  0.39336600  0.66874200  1.0
  Fe  Fe1  1  0.35211700  0.66874200  0.60663400  1.0
  Fe  Fe2  1  0.62749300  0.33125800  0.39336500  1.0
  Fe  Fe3  1  0.04125000  0.60663400  0.33125700  1.0
  Fe  Fe4  1  0.02229600  0.39001500  0.04994800  1.0
  Fe  Fe5  1  0.92775600  0.04994800  0.60998500  1.0
  Fe  Fe6  1  0.58768900  0.95005200  0.39001500  1.0
  Fe  Fe7  1  0.46225900  0.60998500  0.95005200  1.0
  Fe  Fe8  1  0.87140400  0.81522600  0.97273800  1.0
  Fe  Fe9  1  0.15585800  0.97273800  0.18477400  1.0
  Fe  Fe10  1  0.31337000  0.02726200  0.81522600  1.0
  Fe  Fe11  1  0.65936800  0.18477400  0.02726200  1.0
