# generated using pymatgen
data_Fe
_symmetry_space_group_name_H-M   'P 1'
_cell_length_a   6.04578748
_cell_length_b   6.04578748
_cell_length_c   6.04578807
_cell_angle_alpha   60.10429844
_cell_angle_beta   60.10429844
_cell_angle_gamma   60.10429872
_symmetry_Int_Tables_number   1
_chemical_formula_structural   Fe
_chemical_formula_sum   Fe4
_cell_volume   156.62777085
_cell_formula_units_Z   4
loop_
 _symmetry_equiv_pos_site_id
 _symmetry_equiv_pos_as_xyz
  1  'x, y, z'
loop_
 _atom_site_type_symbol
 _atom_site_label
 _atom_site_symmetry_multiplicity
 _atom_site_fract_x
 _atom_site_fract_y
 _atom_site_fract_z
 _atom_site_occupancy
  Fe  Fe0  1  0.24640200  0.24640200  0.24640200  1.0
  Fe  Fe1  1  0.62650900  0.11873900  0.62650900  1.0
  Fe  Fe2  1  0.62650900  0.62650900  0.11873900  1.0
  Fe  Fe3  1  0.11873900  0.62650900  0.62650900  1.0
