# generated using pymatgen
data_DyNi2
_symmetry_space_group_name_H-M   'P 1'
_cell_length_a   7.71089794
_cell_length_b   7.71089794
_cell_length_c   7.71089794
_cell_angle_alpha   109.47122063
_cell_angle_beta   109.47122064
_cell_angle_gamma   109.47122064
_symmetry_Int_Tables_number   1
_chemical_formula_structural   DyNi2
_chemical_formula_sum   'Dy6 Ni12'
_cell_volume   352.93357403
_cell_formula_units_Z   6
loop_
 _symmetry_equiv_pos_site_id
 _symmetry_equiv_pos_as_xyz
  1  'x, y, z'
loop_
 _atom_site_type_symbol
 _atom_site_label
 _atom_site_symmetry_multiplicity
 _atom_site_fract_x
 _atom_site_fract_y
 _atom_site_fract_z
 _atom_site_occupancy
  Dy  Dy0  1  1.00000000  0.29248700  0.29248700  1.0
  Dy  Dy1  1  1.00000000  0.70751300  0.70751300  1.0
  Dy  Dy2  1  0.70751300  0.70751300  0.00000000  1.0
  Dy  Dy3  1  0.29248700  0.29248700  0.00000000  1.0
  Dy  Dy4  1  0.29248700  0.00000000  0.29248700  1.0
  Dy  Dy5  1  0.70751300  0.00000000  0.70751300  1.0
  Ni  Ni6  1  0.66503400  0.66503400  0.33006800  1.0
  Ni  Ni7  1  0.33006700  0.66503300  0.66503300  1.0
  Ni  Ni8  1  0.66503400  0.00000000  0.33496700  1.0
  Ni  Ni9  1  0.33496600  0.66993200  0.33496600  1.0
  Ni  Ni10  1  0.66503400  0.33006800  0.66503400  1.0
  Ni  Ni11  1  0.66503400  0.33496700  0.00000000  1.0
  Ni  Ni12  1  0.66993300  0.33496700  0.33496700  1.0
  Ni  Ni13  1  0.33496600  0.66503300  1.00000000  1.0
  Ni  Ni14  1  0.33496600  0.00000000  0.66503300  1.0
  Ni  Ni15  1  1.00000000  0.33496600  0.66503400  1.0
  Ni  Ni16  1  0.33496600  0.33496600  0.66993200  1.0
  Ni  Ni17  1  1.00000000  0.66503400  0.33496600  1.0
