# generated using pymatgen
data_Fe
_symmetry_space_group_name_H-M   'P 1'
_cell_length_a   4.79676200
_cell_length_b   7.44643800
_cell_length_c   17.97976489
_cell_angle_alpha   91.00500652
_cell_angle_beta   90.00000000
_cell_angle_gamma   90.00000000
_symmetry_Int_Tables_number   1
_chemical_formula_structural   Fe
_chemical_formula_sum   Fe8
_cell_volume   642.11666699
_cell_formula_units_Z   8
loop_
 _symmetry_equiv_pos_site_id
 _symmetry_equiv_pos_as_xyz
  1  'x, y, z'
loop_
 _atom_site_type_symbol
 _atom_site_label
 _atom_site_symmetry_multiplicity
 _atom_site_fract_x
 _atom_site_fract_y
 _atom_site_fract_z
 _atom_site_occupancy
  Fe  Fe0  1  0.25662600  0.96720600  0.60020100  1.0
  Fe  Fe1  1  0.24337400  0.96720600  0.10020100  1.0
  Fe  Fe2  1  0.66739300  0.50748500  0.83142000  1.0
  Fe  Fe3  1  0.83260700  0.50748500  0.33142000  1.0
  Fe  Fe4  1  0.16739300  0.49251500  0.66858000  1.0
  Fe  Fe5  1  0.33260700  0.49251500  0.16858000  1.0
  Fe  Fe6  1  0.75662600  0.03279400  0.89979900  1.0
  Fe  Fe7  1  0.74337400  0.03279400  0.39979900  1.0
