# generated using pymatgen
data_PrCu9
_symmetry_space_group_name_H-M   'P 1'
_cell_length_a   8.75088566
_cell_length_b   8.75088566
_cell_length_c   8.75088566
_cell_angle_alpha   94.89338197
_cell_angle_beta   117.21618038
_cell_angle_gamma   117.21618038
_symmetry_Int_Tables_number   1
_chemical_formula_structural   PrCu9
_chemical_formula_sum   'Pr2 Cu18'
_cell_volume   491.84750420
_cell_formula_units_Z   2
loop_
 _symmetry_equiv_pos_site_id
 _symmetry_equiv_pos_as_xyz
  1  'x, y, z'
loop_
 _atom_site_type_symbol
 _atom_site_label
 _atom_site_symmetry_multiplicity
 _atom_site_fract_x
 _atom_site_fract_y
 _atom_site_fract_z
 _atom_site_occupancy
  Pr  Pr0  1  0.00000000  0.75000000  0.75000000  1.0
  Pr  Pr1  1  1.00000000  0.25000000  0.25000000  1.0
  Cu  Cu2  1  0.10313100  0.94650400  0.44650400  1.0
  Cu  Cu3  1  0.89686900  0.05349600  0.55349600  1.0
  Cu  Cu4  1  0.89686900  0.34337300  0.84337300  1.0
  Cu  Cu5  1  0.50000000  0.44650400  0.34337300  1.0
  Cu  Cu6  1  0.50000000  0.15662700  0.05349600  1.0
  Cu  Cu7  1  0.10313100  0.65662700  0.15662700  1.0
  Cu  Cu8  1  0.50000000  0.55349600  0.65662700  1.0
  Cu  Cu9  1  0.50000000  0.84337300  0.94650400  1.0
  Cu  Cu10  1  0.50000000  0.00000000  0.50000000  1.0
  Cu  Cu11  1  0.50000000  0.50000000  1.00000000  1.0
  Cu  Cu12  1  0.29328000  0.57568800  0.07568800  1.0
  Cu  Cu13  1  0.70672000  0.42431200  0.92431200  1.0
  Cu  Cu14  1  0.70672000  0.78240800  0.28240800  1.0
  Cu  Cu15  1  0.50000000  0.07568800  0.78240800  1.0
  Cu  Cu16  1  0.50000000  0.71759200  0.42431200  1.0
  Cu  Cu17  1  0.29328000  0.21759200  0.71759200  1.0
  Cu  Cu18  1  0.50000000  0.92431200  0.21759200  1.0
  Cu  Cu19  1  0.50000000  0.28240800  0.57568800  1.0
