# generated using pymatgen
data_Gd
_symmetry_space_group_name_H-M   'P 1'
_cell_length_a   6.38797800
_cell_length_b   6.92068700
_cell_length_c   6.74849786
_cell_angle_alpha   90.00000000
_cell_angle_beta   104.24936955
_cell_angle_gamma   90.00000000
_symmetry_Int_Tables_number   1
_chemical_formula_structural   Gd
_chemical_formula_sum   Gd4
_cell_volume   289.16665002
_cell_formula_units_Z   4
loop_
 _symmetry_equiv_pos_site_id
 _symmetry_equiv_pos_as_xyz
  1  'x, y, z'
loop_
 _atom_site_type_symbol
 _atom_site_label
 _atom_site_symmetry_multiplicity
 _atom_site_fract_x
 _atom_site_fract_y
 _atom_site_fract_z
 _atom_site_occupancy
  Gd  Gd0  1  0.59415700  0.34641800  0.78414300  1.0
  Gd  Gd1  1  0.90584300  0.84641800  0.71585700  1.0
  Gd  Gd2  1  0.40584300  0.65358200  0.21585700  1.0
  Gd  Gd3  1  0.09415700  0.15358200  0.28414300  1.0
