# generated using pymatgen
data_Cr
_symmetry_space_group_name_H-M   'P 1'
_cell_length_a   7.01913400
_cell_length_b   7.33771339
_cell_length_c   7.40705972
_cell_angle_alpha   80.92589739
_cell_angle_beta   61.83800459
_cell_angle_gamma   77.29038225
_symmetry_Int_Tables_number   1
_chemical_formula_structural   Cr
_chemical_formula_sum   Cr3
_cell_volume   327.44799732
_cell_formula_units_Z   3
loop_
 _symmetry_equiv_pos_site_id
 _symmetry_equiv_pos_as_xyz
  1  'x, y, z'
loop_
 _atom_site_type_symbol
 _atom_site_label
 _atom_site_symmetry_multiplicity
 _atom_site_fract_x
 _atom_site_fract_y
 _atom_site_fract_z
 _atom_site_occupancy
  Cr  Cr0  1  0.05284700  0.77162500  0.75000100  1.0
  Cr  Cr1  1  0.00000000  0.50000000  0.50000000  1.0
  Cr  Cr2  1  0.94715300  0.22837500  0.24999900  1.0
