# generated using pymatgen
data_Tb2Pd
_symmetry_space_group_name_H-M   'P 1'
_cell_length_a   7.93037600
_cell_length_b   8.22976000
_cell_length_c   8.22976067
_cell_angle_alpha   60.00000269
_cell_angle_beta   90.00000000
_cell_angle_gamma   90.00000000
_symmetry_Int_Tables_number   1
_chemical_formula_structural   Tb2Pd
_chemical_formula_sum   'Tb8 Pd4'
_cell_volume   465.15618323
_cell_formula_units_Z   4
loop_
 _symmetry_equiv_pos_site_id
 _symmetry_equiv_pos_as_xyz
  1  'x, y, z'
loop_
 _atom_site_type_symbol
 _atom_site_label
 _atom_site_symmetry_multiplicity
 _atom_site_fract_x
 _atom_site_fract_y
 _atom_site_fract_z
 _atom_site_occupancy
  Tb  Tb0  1  0.75000000  0.97664300  0.51167800  1.0
  Tb  Tb1  1  0.25000000  0.02335700  0.48832200  1.0
  Tb  Tb2  1  0.75000000  0.51167900  0.51167800  1.0
  Tb  Tb3  1  0.25000000  0.48832100  0.48832200  1.0
  Tb  Tb4  1  0.75000000  0.51167900  0.97664200  1.0
  Tb  Tb5  1  0.25000000  0.48832100  0.02335800  1.0
  Tb  Tb6  1  0.75000000  0.00000000  0.00000000  1.0
  Tb  Tb7  1  0.25000000  0.00000000  0.00000000  1.0
  Pd  Pd8  1  0.95655300  0.33333333  0.33333333  1.0
  Pd  Pd9  1  0.04344700  0.66666667  0.66666667  1.0
  Pd  Pd10  1  0.45655300  0.66666667  0.66666667  1.0
  Pd  Pd11  1  0.54344700  0.33333333  0.33333333  1.0
