# generated using pymatgen
data_Mn
_symmetry_space_group_name_H-M   'P 1'
_cell_length_a   10.80830170
_cell_length_b   10.80830170
_cell_length_c   10.80830170
_cell_angle_alpha   109.31819710
_cell_angle_beta   109.54778655
_cell_angle_gamma   109.54778655
_symmetry_Int_Tables_number   1
_chemical_formula_structural   Mn
_chemical_formula_sum   Mn8
_cell_volume   971.95948791
_cell_formula_units_Z   8
loop_
 _symmetry_equiv_pos_site_id
 _symmetry_equiv_pos_as_xyz
  1  'x, y, z'
loop_
 _atom_site_type_symbol
 _atom_site_label
 _atom_site_symmetry_multiplicity
 _atom_site_fract_x
 _atom_site_fract_y
 _atom_site_fract_z
 _atom_site_occupancy
  Mn  Mn0  1  0.75000000  0.37500000  0.12500000  1.0
  Mn  Mn1  1  0.75000000  0.87500000  0.62500000  1.0
  Mn  Mn2  1  0.75000000  0.37500000  0.62500000  1.0
  Mn  Mn3  1  0.25000000  0.37500000  0.62500000  1.0
  Mn  Mn4  1  0.25000000  0.87500000  0.62500000  1.0
  Mn  Mn5  1  0.25000000  0.37500000  0.12500000  1.0
  Mn  Mn6  1  0.25000000  0.87500000  0.12500000  1.0
  Mn  Mn7  1  0.75000000  0.87500000  0.12500000  1.0
