# generated using pymatgen
data_Ni
_symmetry_space_group_name_H-M   'P 1'
_cell_length_a   5.47812896
_cell_length_b   6.83160203
_cell_length_c   6.83161592
_cell_angle_alpha   83.03307074
_cell_angle_beta   78.43363092
_cell_angle_gamma   78.43477557
_symmetry_Int_Tables_number   1
_chemical_formula_structural   Ni
_chemical_formula_sum   Ni2
_cell_volume   244.51429494
_cell_formula_units_Z   2
loop_
 _symmetry_equiv_pos_site_id
 _symmetry_equiv_pos_as_xyz
  1  'x, y, z'
loop_
 _atom_site_type_symbol
 _atom_site_label
 _atom_site_symmetry_multiplicity
 _atom_site_fract_x
 _atom_site_fract_y
 _atom_site_fract_z
 _atom_site_occupancy
  Ni  Ni0  1  0.24997550  0.91072400  0.08929300  1.0
  Ni  Ni1  1  0.75002150  0.08927650  0.91070850  1.0
