# generated using pymatgen
data_Nd3W2
_symmetry_space_group_name_H-M   'P 1'
_cell_length_a   11.12373600
_cell_length_b   11.12373690
_cell_length_c   17.82412300
_cell_angle_alpha   90.00000000
_cell_angle_beta   90.00000000
_cell_angle_gamma   119.99999733
_symmetry_Int_Tables_number   1
_chemical_formula_structural   Nd3W2
_chemical_formula_sum   'Nd12 W8'
_cell_volume   1910.03003004
_cell_formula_units_Z   4
loop_
 _symmetry_equiv_pos_site_id
 _symmetry_equiv_pos_as_xyz
  1  'x, y, z'
loop_
 _atom_site_type_symbol
 _atom_site_label
 _atom_site_symmetry_multiplicity
 _atom_site_fract_x
 _atom_site_fract_y
 _atom_site_fract_z
 _atom_site_occupancy
  Nd  Nd0  1  0.53017500  1.00000000  0.09547700  1.0
  Nd  Nd1  1  0.46982500  0.46982500  0.09547700  1.0
  Nd  Nd2  1  1.00000000  0.53017500  0.09547700  1.0
  Nd  Nd3  1  0.46982500  1.00000000  0.90452300  1.0
  Nd  Nd4  1  0.53017500  0.53017500  0.90452300  1.0
  Nd  Nd5  1  1.00000000  0.46982500  0.90452300  1.0
  Nd  Nd6  1  0.46982500  1.00000000  0.59547700  1.0
  Nd  Nd7  1  0.53017500  0.53017500  0.59547700  1.0
  Nd  Nd8  1  1.00000000  0.46982500  0.59547700  1.0
  Nd  Nd9  1  0.53017500  1.00000000  0.40452300  1.0
  Nd  Nd10  1  0.46982500  0.46982500  0.40452300  1.0
  Nd  Nd11  1  1.00000000  0.53017500  0.40452300  1.0
  W  W12  1  0.73049000  0.00000000  0.25000000  1.0
  W  W13  1  0.26951000  0.26951000  0.25000000  1.0
  W  W14  1  0.00000000  0.73049000  0.25000000  1.0
  W  W15  1  0.26951000  0.00000000  0.75000000  1.0
  W  W16  1  0.73049000  0.73049000  0.75000000  1.0
  W  W17  1  1.00000000  0.26951000  0.75000000  1.0
  W  W18  1  0.00000000  0.00000000  0.00000000  1.0
  W  W19  1  0.00000000  0.00000000  0.50000000  1.0
