# generated using pymatgen
data_Nb
_symmetry_space_group_name_H-M   'P 1'
_cell_length_a   4.03887700
_cell_length_b   12.86791400
_cell_length_c   12.86791400
_cell_angle_alpha   90.00000000
_cell_angle_beta   90.00000000
_cell_angle_gamma   90.00000000
_symmetry_Int_Tables_number   1
_chemical_formula_structural   Nb
_chemical_formula_sum   Nb10
_cell_volume   668.77022133
_cell_formula_units_Z   10
loop_
 _symmetry_equiv_pos_site_id
 _symmetry_equiv_pos_as_xyz
  1  'x, y, z'
loop_
 _atom_site_type_symbol
 _atom_site_label
 _atom_site_symmetry_multiplicity
 _atom_site_fract_x
 _atom_site_fract_y
 _atom_site_fract_z
 _atom_site_occupancy
  Nb  Nb0  1  0.00000000  0.50000000  0.00000000  1.0
  Nb  Nb1  1  0.00000000  1.00000000  0.50000000  1.0
  Nb  Nb2  1  1.00000000  0.70728800  0.57599800  1.0
  Nb  Nb3  1  0.00000000  0.29271200  0.42400200  1.0
  Nb  Nb4  1  0.00000000  0.20728800  0.92400200  1.0
  Nb  Nb5  1  0.00000000  0.79271200  0.07599800  1.0
  Nb  Nb6  1  0.00000000  0.42400200  0.70728800  1.0
  Nb  Nb7  1  0.00000000  0.57599800  0.29271200  1.0
  Nb  Nb8  1  0.00000000  0.07599800  0.20728800  1.0
  Nb  Nb9  1  0.00000000  0.92400200  0.79271200  1.0
