# generated using pymatgen
data_Cr
_symmetry_space_group_name_H-M   'P 1'
_cell_length_a   5.99667600
_cell_length_b   5.99667621
_cell_length_c   14.73908500
_cell_angle_alpha   90.00000000
_cell_angle_beta   90.00000000
_cell_angle_gamma   119.99999882
_symmetry_Int_Tables_number   1
_chemical_formula_structural   Cr
_chemical_formula_sum   Cr12
_cell_volume   459.01020843
_cell_formula_units_Z   12
loop_
 _symmetry_equiv_pos_site_id
 _symmetry_equiv_pos_as_xyz
  1  'x, y, z'
loop_
 _atom_site_type_symbol
 _atom_site_label
 _atom_site_symmetry_multiplicity
 _atom_site_fract_x
 _atom_site_fract_y
 _atom_site_fract_z
 _atom_site_occupancy
  Cr  Cr0  1  0.16579900  0.83420000  0.16730800  1.0
  Cr  Cr1  1  0.66840100  0.83420000  0.16730800  1.0
  Cr  Cr2  1  0.49996000  0.50003900  0.49955700  1.0
  Cr  Cr3  1  0.16579900  0.33159800  0.16730800  1.0
  Cr  Cr4  1  0.33333333  0.66666667  0.33299900  1.0
  Cr  Cr5  1  0.00007900  0.50003900  0.49955700  1.0
  Cr  Cr6  1  0.83229800  0.16770200  0.83244000  1.0
  Cr  Cr7  1  0.49996000  0.99992000  0.49955700  1.0
  Cr  Cr8  1  0.83229800  0.66459600  0.83244000  1.0
  Cr  Cr9  1  0.66666667  0.33333333  0.66588900  1.0
  Cr  Cr10  1  0.33540400  0.16770200  0.83244000  1.0
  Cr  Cr11  1  0.33333333  0.66666667  0.95598500  1.0
