# generated using pymatgen
data_Ti
_symmetry_space_group_name_H-M   'P 1'
_cell_length_a   2.95518900
_cell_length_b   5.11262000
_cell_length_c   9.76571500
_cell_angle_alpha   90.00000000
_cell_angle_beta   90.00000000
_cell_angle_gamma   90.00000000
_symmetry_Int_Tables_number   1
_chemical_formula_structural   Ti
_chemical_formula_sum   Ti4
_cell_volume   147.54782839
_cell_formula_units_Z   4
loop_
 _symmetry_equiv_pos_site_id
 _symmetry_equiv_pos_as_xyz
  1  'x, y, z'
loop_
 _atom_site_type_symbol
 _atom_site_label
 _atom_site_symmetry_multiplicity
 _atom_site_fract_x
 _atom_site_fract_y
 _atom_site_fract_z
 _atom_site_occupancy
  Ti  Ti0  1  0.50000000  0.77310000  0.85660400  1.0
  Ti  Ti1  1  0.50000000  0.22690000  0.35660400  1.0
  Ti  Ti2  1  0.00000000  0.26580000  0.63828600  1.0
  Ti  Ti3  1  0.00000000  0.73420000  0.13828600  1.0
