# generated using pymatgen
data_Er7Rh3
_symmetry_space_group_name_H-M   'P 1'
_cell_length_a   6.11311600
_cell_length_b   9.72945000
_cell_length_c   9.72945012
_cell_angle_alpha   119.99999960
_cell_angle_beta   90.00000000
_cell_angle_gamma   90.00000000
_symmetry_Int_Tables_number   1
_chemical_formula_structural   Er7Rh3
_chemical_formula_sum   'Er14 Rh6'
_cell_volume   501.15244888
_cell_formula_units_Z   2
loop_
 _symmetry_equiv_pos_site_id
 _symmetry_equiv_pos_as_xyz
  1  'x, y, z'
loop_
 _atom_site_type_symbol
 _atom_site_label
 _atom_site_symmetry_multiplicity
 _atom_site_fract_x
 _atom_site_fract_y
 _atom_site_fract_z
 _atom_site_occupancy
  Er  Er0  1  0.00535800  0.24766600  0.12383300  1.0
  Er  Er1  1  0.50535800  0.12383300  0.24766600  1.0
  Er  Er2  1  0.20327100  0.45846700  0.91693400  1.0
  Er  Er3  1  0.70327100  0.91693400  0.45846700  1.0
  Er  Er4  1  0.70327100  0.54153300  0.45846700  1.0
  Er  Er5  1  0.20327100  0.45846700  0.54153300  1.0
  Er  Er6  1  0.20327100  0.08306600  0.54153300  1.0
  Er  Er7  1  0.70327100  0.54153300  0.08306600  1.0
  Er  Er8  1  0.00535800  0.87616700  0.12383300  1.0
  Er  Er9  1  0.50535800  0.12383300  0.87616700  1.0
  Er  Er10  1  0.50535800  0.75233400  0.87616700  1.0
  Er  Er11  1  0.00535800  0.87616700  0.75233400  1.0
  Er  Er12  1  0.71492300  0.33333333  0.66666667  1.0
  Er  Er13  1  0.21492300  0.66666667  0.33333333  1.0
  Rh  Rh14  1  0.43906300  0.81042200  0.62084400  1.0
  Rh  Rh15  1  0.93906300  0.62084300  0.81042100  1.0
  Rh  Rh16  1  0.93906300  0.18957800  0.81042100  1.0
  Rh  Rh17  1  0.43906300  0.81042200  0.18957900  1.0
  Rh  Rh18  1  0.43906300  0.37915700  0.18957900  1.0
  Rh  Rh19  1  0.93906300  0.18957800  0.37915600  1.0
