# generated using pymatgen
data_Np2Mo3
_symmetry_space_group_name_H-M   'P 1'
_cell_length_a   6.78087431
_cell_length_b   6.87022930
_cell_length_c   6.88846800
_cell_angle_alpha   90.00000000
_cell_angle_beta   90.00000000
_cell_angle_gamma   109.74765066
_symmetry_Int_Tables_number   1
_chemical_formula_structural   Np2Mo3
_chemical_formula_sum   'Np4 Mo6'
_cell_volume   302.03468294
_cell_formula_units_Z   2
loop_
 _symmetry_equiv_pos_site_id
 _symmetry_equiv_pos_as_xyz
  1  'x, y, z'
loop_
 _atom_site_type_symbol
 _atom_site_label
 _atom_site_symmetry_multiplicity
 _atom_site_fract_x
 _atom_site_fract_y
 _atom_site_fract_z
 _atom_site_occupancy
  Np  Np0  1  0.55564200  0.68242800  0.16063900  1.0
  Np  Np1  1  0.94435800  0.31757200  0.66063900  1.0
  Np  Np2  1  0.05564200  0.68242800  0.33936100  1.0
  Np  Np3  1  0.44435800  0.31757200  0.83936100  1.0
  Mo  Mo4  1  0.24753300  0.25102200  0.33577600  1.0
  Mo  Mo5  1  0.75246700  0.74897800  0.66422400  1.0
  Mo  Mo6  1  0.74753300  0.25102200  0.16422400  1.0
  Mo  Mo7  1  0.50000000  0.00000000  0.50000000  1.0
  Mo  Mo8  1  0.00000000  0.00000000  0.00000000  1.0
  Mo  Mo9  1  0.25246700  0.74897800  0.83577600  1.0
