# generated using pymatgen
data_Nb
_symmetry_space_group_name_H-M   'P 1'
_cell_length_a   5.64761400
_cell_length_b   5.68848400
_cell_length_c   13.01244535
_cell_angle_alpha   90.00000000
_cell_angle_beta   102.53336916
_cell_angle_gamma   90.00000000
_symmetry_Int_Tables_number   1
_chemical_formula_structural   Nb
_chemical_formula_sum   Nb4
_cell_volume   408.08048567
_cell_formula_units_Z   4
loop_
 _symmetry_equiv_pos_site_id
 _symmetry_equiv_pos_as_xyz
  1  'x, y, z'
loop_
 _atom_site_type_symbol
 _atom_site_label
 _atom_site_symmetry_multiplicity
 _atom_site_fract_x
 _atom_site_fract_y
 _atom_site_fract_z
 _atom_site_occupancy
  Nb  Nb0  1  0.83397300  0.02467900  0.16537000  1.0
  Nb  Nb1  1  0.33139700  0.52467900  0.16537000  1.0
  Nb  Nb2  1  0.66860300  0.02467900  0.83463000  1.0
  Nb  Nb3  1  0.16602700  0.52467900  0.83463000  1.0
