# generated using pymatgen
data_Ce2Cu
_symmetry_space_group_name_H-M   'P 1'
_cell_length_a   4.11328600
_cell_length_b   4.17789400
_cell_length_c   10.99079831
_cell_angle_alpha   90.00000000
_cell_angle_beta   100.78499603
_cell_angle_gamma   90.00000000
_symmetry_Int_Tables_number   1
_chemical_formula_structural   Ce2Cu
_chemical_formula_sum   'Ce2 Cu1'
_cell_volume   185.53922969
_cell_formula_units_Z   1
loop_
 _symmetry_equiv_pos_site_id
 _symmetry_equiv_pos_as_xyz
  1  'x, y, z'
loop_
 _atom_site_type_symbol
 _atom_site_label
 _atom_site_symmetry_multiplicity
 _atom_site_fract_x
 _atom_site_fract_y
 _atom_site_fract_z
 _atom_site_occupancy
  Ce  Ce0  1  0.33017500  1.00000000  0.66035000  1.0
  Ce  Ce1  1  0.99668800  0.00000000  0.99337600  1.0
  Cu  Cu2  1  0.77428300  0.50000000  0.54856600  1.0
