# generated using pymatgen
data_Tb2Mn3
_symmetry_space_group_name_H-M   'P 1'
_cell_length_a   5.44490500
_cell_length_b   10.57367400
_cell_length_c   10.57367400
_cell_angle_alpha   90.00000000
_cell_angle_beta   90.00000000
_cell_angle_gamma   90.00000000
_symmetry_Int_Tables_number   1
_chemical_formula_structural   Tb2Mn3
_chemical_formula_sum   'Tb8 Mn12'
_cell_volume   608.75443697
_cell_formula_units_Z   4
loop_
 _symmetry_equiv_pos_site_id
 _symmetry_equiv_pos_as_xyz
  1  'x, y, z'
loop_
 _atom_site_type_symbol
 _atom_site_label
 _atom_site_symmetry_multiplicity
 _atom_site_fract_x
 _atom_site_fract_y
 _atom_site_fract_z
 _atom_site_occupancy
  Tb  Tb0  1  0.00000000  0.07508800  0.23640100  1.0
  Tb  Tb1  1  0.50000000  0.57508800  0.26359900  1.0
  Tb  Tb2  1  0.50000000  0.73640100  0.57508800  1.0
  Tb  Tb3  1  0.00000000  0.92491200  0.76359900  1.0
  Tb  Tb4  1  0.50000000  0.42491200  0.73640100  1.0
  Tb  Tb5  1  0.00000000  0.23640100  0.92491200  1.0
  Tb  Tb6  1  1.00000000  0.76359900  0.07508800  1.0
  Tb  Tb7  1  0.50000000  0.26359900  0.42491200  1.0
  Mn  Mn8  1  0.50000000  0.87858700  0.14594500  1.0
  Mn  Mn9  1  1.00000000  0.62141300  0.64594500  1.0
  Mn  Mn10  1  0.00000000  0.37858700  0.35405500  1.0
  Mn  Mn11  1  0.50000000  0.14594500  0.12141300  1.0
  Mn  Mn12  1  1.00000000  0.64594500  0.37858700  1.0
  Mn  Mn13  1  0.75000000  0.50000000  0.00000000  1.0
  Mn  Mn14  1  0.00000000  0.35405500  0.62141300  1.0
  Mn  Mn15  1  0.50000000  0.85405500  0.87858700  1.0
  Mn  Mn16  1  0.50000000  0.12141300  0.85405500  1.0
  Mn  Mn17  1  0.25000000  0.50000000  0.00000000  1.0
  Mn  Mn18  1  0.25000000  1.00000000  0.50000000  1.0
  Mn  Mn19  1  0.75000000  1.00000000  0.50000000  1.0
