# generated using pymatgen
data_PrCr
_symmetry_space_group_name_H-M   'P 1'
_cell_length_a   5.51079900
_cell_length_b   5.63296700
_cell_length_c   7.83941300
_cell_angle_alpha   90.00000000
_cell_angle_beta   90.00000000
_cell_angle_gamma   90.00000000
_symmetry_Int_Tables_number   1
_chemical_formula_structural   PrCr
_chemical_formula_sum   'Pr4 Cr4'
_cell_volume   243.35222572
_cell_formula_units_Z   4
loop_
 _symmetry_equiv_pos_site_id
 _symmetry_equiv_pos_as_xyz
  1  'x, y, z'
loop_
 _atom_site_type_symbol
 _atom_site_label
 _atom_site_symmetry_multiplicity
 _atom_site_fract_x
 _atom_site_fract_y
 _atom_site_fract_z
 _atom_site_occupancy
  Pr  Pr0  1  0.51179300  0.54837300  0.25000000  1.0
  Pr  Pr1  1  0.98820700  0.04837300  0.25000000  1.0
  Pr  Pr2  1  0.48820700  0.45162700  0.75000000  1.0
  Pr  Pr3  1  0.01179300  0.95162700  0.75000000  1.0
  Cr  Cr4  1  0.00000000  0.50000000  0.00000000  1.0
  Cr  Cr5  1  0.50000000  0.00000000  0.50000000  1.0
  Cr  Cr6  1  0.00000000  0.50000000  0.50000000  1.0
  Cr  Cr7  1  0.50000000  0.00000000  0.00000000  1.0
