# generated using pymatgen
data_Ti
_symmetry_space_group_name_H-M   'P 1'
_cell_length_a   3.96927800
_cell_length_b   8.74977066
_cell_length_c   9.59550929
_cell_angle_alpha   102.51331150
_cell_angle_beta   90.00000000
_cell_angle_gamma   103.11003152
_symmetry_Int_Tables_number   1
_chemical_formula_structural   Ti
_chemical_formula_sum   Ti6
_cell_volume   316.43533868
_cell_formula_units_Z   6
loop_
 _symmetry_equiv_pos_site_id
 _symmetry_equiv_pos_as_xyz
  1  'x, y, z'
loop_
 _atom_site_type_symbol
 _atom_site_label
 _atom_site_symmetry_multiplicity
 _atom_site_fract_x
 _atom_site_fract_y
 _atom_site_fract_z
 _atom_site_occupancy
  Ti  Ti0  1  0.93414400  0.92234100  0.79058300  1.0
  Ti  Ti1  1  0.84282600  0.66693300  0.30438900  1.0
  Ti  Ti2  1  0.17589300  0.33306700  0.69561100  1.0
  Ti  Ti3  1  0.80780600  0.58712400  0.62740100  1.0
  Ti  Ti4  1  0.01180300  0.07765900  0.20941700  1.0
  Ti  Ti5  1  0.22068200  0.41287600  0.37259900  1.0
