# generated using pymatgen
data_Ru
_symmetry_space_group_name_H-M   'P 1'
_cell_length_a   6.38885800
_cell_length_b   8.24128500
_cell_length_c   11.25637300
_cell_angle_alpha   90.00000000
_cell_angle_beta   90.00000000
_cell_angle_gamma   90.00000000
_symmetry_Int_Tables_number   1
_chemical_formula_structural   Ru
_chemical_formula_sum   Ru4
_cell_volume   592.67504927
_cell_formula_units_Z   4
loop_
 _symmetry_equiv_pos_site_id
 _symmetry_equiv_pos_as_xyz
  1  'x, y, z'
loop_
 _atom_site_type_symbol
 _atom_site_label
 _atom_site_symmetry_multiplicity
 _atom_site_fract_x
 _atom_site_fract_y
 _atom_site_fract_z
 _atom_site_occupancy
  Ru  Ru0  1  0.75000000  0.27909300  0.07859700  1.0
  Ru  Ru1  1  0.25000000  0.72090700  0.92140300  1.0
  Ru  Ru2  1  0.75000000  0.77909300  0.42140300  1.0
  Ru  Ru3  1  0.25000000  0.22090700  0.57859700  1.0
