# generated using pymatgen
data_HoPd
_symmetry_space_group_name_H-M   'P 1'
_cell_length_a   4.47294300
_cell_length_b   6.87758700
_cell_length_c   7.74257600
_cell_angle_alpha   90.00000000
_cell_angle_beta   90.00000000
_cell_angle_gamma   90.00000000
_symmetry_Int_Tables_number   1
_chemical_formula_structural   HoPd
_chemical_formula_sum   'Ho4 Pd4'
_cell_volume   238.18528845
_cell_formula_units_Z   4
loop_
 _symmetry_equiv_pos_site_id
 _symmetry_equiv_pos_as_xyz
  1  'x, y, z'
loop_
 _atom_site_type_symbol
 _atom_site_label
 _atom_site_symmetry_multiplicity
 _atom_site_fract_x
 _atom_site_fract_y
 _atom_site_fract_z
 _atom_site_occupancy
  Ho  Ho0  1  0.25000000  0.03266700  0.68031600  1.0
  Ho  Ho1  1  0.25000000  0.53266700  0.81968400  1.0
  Ho  Ho2  1  0.75000000  0.96733300  0.31968400  1.0
  Ho  Ho3  1  0.75000000  0.46733300  0.18031600  1.0
  Pd  Pd4  1  0.25000000  0.27336800  0.38282800  1.0
  Pd  Pd5  1  0.25000000  0.77336800  0.11717200  1.0
  Pd  Pd6  1  0.75000000  0.72663200  0.61717200  1.0
  Pd  Pd7  1  0.75000000  0.22663200  0.88282800  1.0
