# generated using pymatgen
data_Tb3Nb
_symmetry_space_group_name_H-M   'P 1'
_cell_length_a   6.47535329
_cell_length_b   6.47535329
_cell_length_c   7.57752000
_cell_angle_alpha   90.00000000
_cell_angle_beta   90.00000000
_cell_angle_gamma   110.40135720
_symmetry_Int_Tables_number   1
_chemical_formula_structural   Tb3Nb
_chemical_formula_sum   'Tb6 Nb2'
_cell_volume   297.79710636
_cell_formula_units_Z   2
loop_
 _symmetry_equiv_pos_site_id
 _symmetry_equiv_pos_as_xyz
  1  'x, y, z'
loop_
 _atom_site_type_symbol
 _atom_site_label
 _atom_site_symmetry_multiplicity
 _atom_site_fract_x
 _atom_site_fract_y
 _atom_site_fract_z
 _atom_site_occupancy
  Tb  Tb0  1  0.05609700  0.51483600  0.75000000  1.0
  Tb  Tb1  1  0.48516400  0.94390300  0.25000000  1.0
  Tb  Tb2  1  0.00000000  0.00000000  0.00000000  1.0
  Tb  Tb3  1  0.00000000  0.00000000  0.50000000  1.0
  Tb  Tb4  1  0.51483600  0.05609700  0.75000000  1.0
  Tb  Tb5  1  0.94390300  0.48516400  0.25000000  1.0
  Nb  Nb6  1  0.50000000  0.50000000  0.00000000  1.0
  Nb  Nb7  1  0.50000000  0.50000000  0.50000000  1.0
