# generated using pymatgen
data_Ce2Ni3
_symmetry_space_group_name_H-M   'P 1'
_cell_length_a   5.94052800
_cell_length_b   8.18416497
_cell_length_c   8.18416497
_cell_angle_alpha   73.06096101
_cell_angle_beta   68.71986588
_cell_angle_gamma   68.71986587
_symmetry_Int_Tables_number   1
_chemical_formula_structural   Ce2Ni3
_chemical_formula_sum   'Ce4 Ni6'
_cell_volume   339.60039033
_cell_formula_units_Z   2
loop_
 _symmetry_equiv_pos_site_id
 _symmetry_equiv_pos_as_xyz
  1  'x, y, z'
loop_
 _atom_site_type_symbol
 _atom_site_label
 _atom_site_symmetry_multiplicity
 _atom_site_fract_x
 _atom_site_fract_y
 _atom_site_fract_z
 _atom_site_occupancy
  Ce  Ce0  1  0.36831600  0.89851000  0.36485800  1.0
  Ce  Ce1  1  0.63168400  0.10149000  0.63514200  1.0
  Ce  Ce2  1  0.86831600  0.36485800  0.89851000  1.0
  Ce  Ce3  1  0.13168400  0.63514200  0.10149000  1.0
  Ni  Ni4  1  0.13809800  0.97164200  0.75216200  1.0
  Ni  Ni5  1  0.86190200  0.02835800  0.24783800  1.0
  Ni  Ni6  1  0.63809700  0.75216200  0.97164300  1.0
  Ni  Ni7  1  0.36190300  0.24783800  0.02835700  1.0
  Ni  Ni8  1  0.75000000  0.50000000  0.50000000  1.0
  Ni  Ni9  1  0.25000000  0.50000000  0.50000000  1.0
