# generated using pymatgen
data_GdMn2
_symmetry_space_group_name_H-M   'P 1'
_cell_length_a   5.80304400
_cell_length_b   7.44479200
_cell_length_c   8.63177200
_cell_angle_alpha   90.00000000
_cell_angle_beta   90.00000000
_cell_angle_gamma   90.00000000
_symmetry_Int_Tables_number   1
_chemical_formula_structural   GdMn2
_chemical_formula_sum   'Gd4 Mn8'
_cell_volume   372.91374612
_cell_formula_units_Z   4
loop_
 _symmetry_equiv_pos_site_id
 _symmetry_equiv_pos_as_xyz
  1  'x, y, z'
loop_
 _atom_site_type_symbol
 _atom_site_label
 _atom_site_symmetry_multiplicity
 _atom_site_fract_x
 _atom_site_fract_y
 _atom_site_fract_z
 _atom_site_occupancy
  Gd  Gd0  1  0.00000000  0.86023700  0.82852900  1.0
  Gd  Gd1  1  0.00000000  0.13976300  0.17147100  1.0
  Gd  Gd2  1  0.00000000  0.36023700  0.67147100  1.0
  Gd  Gd3  1  0.00000000  0.63976300  0.32852900  1.0
  Mn  Mn4  1  0.74503900  0.00000000  0.50000000  1.0
  Mn  Mn5  1  0.50000000  0.58949800  0.65016400  1.0
  Mn  Mn6  1  0.50000000  0.41050200  0.34983600  1.0
  Mn  Mn7  1  0.50000000  0.91050200  0.15016400  1.0
  Mn  Mn8  1  0.50000000  0.08949800  0.84983600  1.0
  Mn  Mn9  1  0.25496100  0.50000000  0.00000000  1.0
  Mn  Mn10  1  0.74503900  0.50000000  0.00000000  1.0
  Mn  Mn11  1  0.25496100  0.00000000  0.50000000  1.0
