# generated using pymatgen
data_Co
_symmetry_space_group_name_H-M   'P 1'
_cell_length_a   10.57721200
_cell_length_b   10.57721261
_cell_length_c   12.35876500
_cell_angle_alpha   90.00000000
_cell_angle_beta   90.00000000
_cell_angle_gamma   119.99999809
_symmetry_Int_Tables_number   1
_chemical_formula_structural   Co
_chemical_formula_sum   Co12
_cell_volume   1197.42454844
_cell_formula_units_Z   12
loop_
 _symmetry_equiv_pos_site_id
 _symmetry_equiv_pos_as_xyz
  1  'x, y, z'
loop_
 _atom_site_type_symbol
 _atom_site_label
 _atom_site_symmetry_multiplicity
 _atom_site_fract_x
 _atom_site_fract_y
 _atom_site_fract_z
 _atom_site_occupancy
  Co  Co0  1  0.00000000  0.74945900  0.16666700  1.0
  Co  Co1  1  1.00000000  0.25054100  0.16666700  1.0
  Co  Co2  1  0.75056200  0.50112400  0.83333300  1.0
  Co  Co3  1  0.75056200  0.24943800  0.50000000  1.0
  Co  Co4  1  0.49887600  0.24943800  0.16666700  1.0
  Co  Co5  1  0.74945900  0.00000000  0.83333300  1.0
  Co  Co6  1  0.74945900  0.74945900  0.50000000  1.0
  Co  Co7  1  0.25054100  0.00000000  0.83333300  1.0
  Co  Co8  1  0.50112400  0.75056200  0.16666700  1.0
  Co  Co9  1  0.24943800  0.75056200  0.50000000  1.0
  Co  Co10  1  0.24943800  0.49887600  0.83333300  1.0
  Co  Co11  1  0.25054100  0.25054100  0.50000000  1.0
