# generated using pymatgen
data_TmMn
_symmetry_space_group_name_H-M   'P 1'
_cell_length_a   6.14426200
_cell_length_b   6.14426115
_cell_length_c   11.48985100
_cell_angle_alpha   90.00000000
_cell_angle_beta   90.00000000
_cell_angle_gamma   120.00000456
_symmetry_Int_Tables_number   1
_chemical_formula_structural   TmMn
_chemical_formula_sum   'Tm6 Mn6'
_cell_volume   375.65087173
_cell_formula_units_Z   6
loop_
 _symmetry_equiv_pos_site_id
 _symmetry_equiv_pos_as_xyz
  1  'x, y, z'
loop_
 _atom_site_type_symbol
 _atom_site_label
 _atom_site_symmetry_multiplicity
 _atom_site_fract_x
 _atom_site_fract_y
 _atom_site_fract_z
 _atom_site_occupancy
  Tm  Tm0  1  0.33333333  0.66666667  0.27198600  1.0
  Tm  Tm1  1  0.00000000  0.00000000  0.22808700  1.0
  Tm  Tm2  1  0.66666667  0.33333333  0.77198600  1.0
  Tm  Tm3  1  0.33333333  0.66666667  0.77198600  1.0
  Tm  Tm4  1  0.00000000  0.00000000  0.72808700  1.0
  Tm  Tm5  1  0.66666667  0.33333333  0.27198600  1.0
  Mn  Mn6  1  0.33333333  1.00000000  0.00280600  1.0
  Mn  Mn7  1  0.00000000  0.33337800  0.00280600  1.0
  Mn  Mn8  1  1.00000000  0.66666667  0.50280600  1.0
  Mn  Mn9  1  0.66662200  0.66662200  0.00280600  1.0
  Mn  Mn10  1  0.33333333  0.33333333  0.50280600  1.0
  Mn  Mn11  1  0.66662200  1.00000000  0.50280600  1.0
