# generated using pymatgen
data_Fe
_symmetry_space_group_name_H-M   'P 1'
_cell_length_a   5.98872010
_cell_length_b   5.98872010
_cell_length_c   23.11900600
_cell_angle_alpha   90.00000000
_cell_angle_beta   90.00000000
_cell_angle_gamma   119.07593898
_symmetry_Int_Tables_number   1
_chemical_formula_structural   Fe
_chemical_formula_sum   Fe24
_cell_volume   724.66432926
_cell_formula_units_Z   24
loop_
 _symmetry_equiv_pos_site_id
 _symmetry_equiv_pos_as_xyz
  1  'x, y, z'
loop_
 _atom_site_type_symbol
 _atom_site_label
 _atom_site_symmetry_multiplicity
 _atom_site_fract_x
 _atom_site_fract_y
 _atom_site_fract_z
 _atom_site_occupancy
  Fe  Fe0  1  0.66464900  0.33535100  0.97209500  1.0
  Fe  Fe1  1  0.66464900  0.33535100  0.52790500  1.0
  Fe  Fe2  1  0.32980100  0.67019900  0.18974000  1.0
  Fe  Fe3  1  0.33535100  0.66464900  0.47209500  1.0
  Fe  Fe4  1  0.16862300  0.33303700  0.89106800  1.0
  Fe  Fe5  1  0.99856900  0.00143100  0.25000000  1.0
  Fe  Fe6  1  0.00143100  0.99856900  0.75000000  1.0
  Fe  Fe7  1  0.83000200  0.16999800  0.38967700  1.0
  Fe  Fe8  1  0.16999800  0.83000200  0.88967700  1.0
  Fe  Fe9  1  0.33303700  0.16862300  0.10893200  1.0
  Fe  Fe10  1  0.66696300  0.83137700  0.60893200  1.0
  Fe  Fe11  1  0.33535100  0.66464900  0.02790500  1.0
  Fe  Fe12  1  0.16862300  0.33303700  0.60893200  1.0
  Fe  Fe13  1  0.67019900  0.32980100  0.81026000  1.0
  Fe  Fe14  1  0.33303700  0.16862300  0.39106800  1.0
  Fe  Fe15  1  0.00000000  0.00000000  0.00000000  1.0
  Fe  Fe16  1  0.83000200  0.16999800  0.11032300  1.0
  Fe  Fe17  1  0.83137700  0.66696300  0.39106800  1.0
  Fe  Fe18  1  0.66696300  0.83137700  0.89106800  1.0
  Fe  Fe19  1  0.00000000  0.00000000  0.50000000  1.0
  Fe  Fe20  1  0.32980100  0.67019900  0.31026000  1.0
  Fe  Fe21  1  0.16999800  0.83000200  0.61032300  1.0
  Fe  Fe22  1  0.83137700  0.66696300  0.10893200  1.0
  Fe  Fe23  1  0.67019900  0.32980100  0.68974000  1.0
