# generated using pymatgen
data_CoW
_symmetry_space_group_name_H-M   'P 1'
_cell_length_a   5.81590233
_cell_length_b   5.81786356
_cell_length_c   5.82351412
_cell_angle_alpha   119.86281309
_cell_angle_beta   90.13282874
_cell_angle_gamma   119.92004599
_symmetry_Int_Tables_number   1
_chemical_formula_structural   CoW
_chemical_formula_sum   'Co1 W1'
_cell_volume   139.62722202
_cell_formula_units_Z   1
loop_
 _symmetry_equiv_pos_site_id
 _symmetry_equiv_pos_as_xyz
  1  'x, y, z'
loop_
 _atom_site_type_symbol
 _atom_site_label
 _atom_site_symmetry_multiplicity
 _atom_site_fract_x
 _atom_site_fract_y
 _atom_site_fract_z
 _atom_site_occupancy
  Co  Co0  1  0.99999850  0.99999900  0.00000000  1.0
  W  W1  1  0.50000300  0.00000100  0.50000100  1.0
