# generated using pymatgen
data_Fe
_symmetry_space_group_name_H-M   'P 1'
_cell_length_a   4.67440221
_cell_length_b   4.67427287
_cell_length_c   5.59184660
_cell_angle_alpha   65.29454955
_cell_angle_beta   65.29377760
_cell_angle_gamma   59.99905552
_symmetry_Int_Tables_number   1
_chemical_formula_structural   Fe
_chemical_formula_sum   Fe2
_cell_volume   92.67076611
_cell_formula_units_Z   2
loop_
 _symmetry_equiv_pos_site_id
 _symmetry_equiv_pos_as_xyz
  1  'x, y, z'
loop_
 _atom_site_type_symbol
 _atom_site_label
 _atom_site_symmetry_multiplicity
 _atom_site_fract_x
 _atom_site_fract_y
 _atom_site_fract_z
 _atom_site_occupancy
  Fe  Fe0  1  0.00000000  0.00000100  1.00000000  1.0
  Fe  Fe1  1  0.50000000  0.49999900  0.50000000  1.0
