# generated using pymatgen
data_CrFe2
_symmetry_space_group_name_H-M   'P 1'
_cell_length_a   2.54860974
_cell_length_b   2.54860974
_cell_length_c   7.99873700
_cell_angle_alpha   90.00000000
_cell_angle_beta   90.00000000
_cell_angle_gamma   107.89560492
_symmetry_Int_Tables_number   1
_chemical_formula_structural   CrFe2
_chemical_formula_sum   'Cr1 Fe2'
_cell_volume   49.44139688
_cell_formula_units_Z   1
loop_
 _symmetry_equiv_pos_site_id
 _symmetry_equiv_pos_as_xyz
  1  'x, y, z'
loop_
 _atom_site_type_symbol
 _atom_site_label
 _atom_site_symmetry_multiplicity
 _atom_site_fract_x
 _atom_site_fract_y
 _atom_site_fract_z
 _atom_site_occupancy
  Cr  Cr0  1  0.00000000  0.00000000  0.99218400  1.0
  Fe  Fe1  1  0.00000000  0.00000000  0.50605700  1.0
  Fe  Fe2  1  0.50000000  0.50000000  0.74994200  1.0
