# generated using pymatgen
data_Sm
_symmetry_space_group_name_H-M   'P 1'
_cell_length_a   5.31255700
_cell_length_b   5.33040988
_cell_length_c   5.33040988
_cell_angle_alpha   60.34787181
_cell_angle_beta   60.11073062
_cell_angle_gamma   60.11073062
_symmetry_Int_Tables_number   1
_chemical_formula_structural   Sm
_chemical_formula_sum   Sm2
_cell_volume   107.19321151
_cell_formula_units_Z   2
loop_
 _symmetry_equiv_pos_site_id
 _symmetry_equiv_pos_as_xyz
  1  'x, y, z'
loop_
 _atom_site_type_symbol
 _atom_site_label
 _atom_site_symmetry_multiplicity
 _atom_site_fract_x
 _atom_site_fract_y
 _atom_site_fract_z
 _atom_site_occupancy
  Sm  Sm0  1  0.25000000  0.25659200  0.24340800  1.0
  Sm  Sm1  1  0.75000000  0.74340800  0.75659200  1.0
