# generated using pymatgen
data_V
_symmetry_space_group_name_H-M   'P 1'
_cell_length_a   5.36607803
_cell_length_b   6.62470558
_cell_length_c   6.62470558
_cell_angle_alpha   83.73454912
_cell_angle_beta   74.41922341
_cell_angle_gamma   74.41922341
_symmetry_Int_Tables_number   1
_chemical_formula_structural   V
_chemical_formula_sum   V2
_cell_volume   218.33594958
_cell_formula_units_Z   2
loop_
 _symmetry_equiv_pos_site_id
 _symmetry_equiv_pos_as_xyz
  1  'x, y, z'
loop_
 _atom_site_type_symbol
 _atom_site_label
 _atom_site_symmetry_multiplicity
 _atom_site_fract_x
 _atom_site_fract_y
 _atom_site_fract_z
 _atom_site_occupancy
  V  V0  1  0.25000000  0.09785900  0.90214100  1.0
  V  V1  1  0.75000000  0.90214100  0.09785900  1.0
