# generated using pymatgen
data_FeW
_symmetry_space_group_name_H-M   'P 1'
_cell_length_a   5.66469079
_cell_length_b   5.67479368
_cell_length_c   5.71644643
_cell_angle_alpha   119.08701894
_cell_angle_beta   119.02134960
_cell_angle_gamma   91.16057535
_symmetry_Int_Tables_number   1
_chemical_formula_structural   FeW
_chemical_formula_sum   'Fe1 W1'
_cell_volume   132.30125898
_cell_formula_units_Z   1
loop_
 _symmetry_equiv_pos_site_id
 _symmetry_equiv_pos_as_xyz
  1  'x, y, z'
loop_
 _atom_site_type_symbol
 _atom_site_label
 _atom_site_symmetry_multiplicity
 _atom_site_fract_x
 _atom_site_fract_y
 _atom_site_fract_z
 _atom_site_occupancy
  Fe  Fe0  1  0.49997600  0.50005300  0.99990900  1.0
  W  W1  1  0.99995500  0.99998000  0.99991000  1.0
