# generated using pymatgen
data_GdCr4
_symmetry_space_group_name_H-M   'P 1'
_cell_length_a   5.04355000
_cell_length_b   6.81407357
_cell_length_c   6.81407357
_cell_angle_alpha   82.12793107
_cell_angle_beta   68.27924379
_cell_angle_gamma   68.27924379
_symmetry_Int_Tables_number   1
_chemical_formula_structural   GdCr4
_chemical_formula_sum   'Gd1 Cr4'
_cell_volume   202.10639383
_cell_formula_units_Z   1
loop_
 _symmetry_equiv_pos_site_id
 _symmetry_equiv_pos_as_xyz
  1  'x, y, z'
loop_
 _atom_site_type_symbol
 _atom_site_label
 _atom_site_symmetry_multiplicity
 _atom_site_fract_x
 _atom_site_fract_y
 _atom_site_fract_z
 _atom_site_occupancy
  Gd  Gd0  1  0.00000000  0.00000000  0.00000000  1.0
  Cr  Cr1  1  0.50000000  0.50000000  0.00000000  1.0
  Cr  Cr2  1  1.00000000  0.00000000  0.50000000  1.0
  Cr  Cr3  1  0.50000000  0.00000000  0.50000000  1.0
  Cr  Cr4  1  1.00000000  0.50000000  1.00000000  1.0
