# generated using pymatgen
data_Nd2Cu
_symmetry_space_group_name_H-M   'P 1'
_cell_length_a   4.11374400
_cell_length_b   4.16393100
_cell_length_c   11.15721371
_cell_angle_alpha   90.00000000
_cell_angle_beta   100.62344552
_cell_angle_gamma   90.00000000
_symmetry_Int_Tables_number   1
_chemical_formula_structural   Nd2Cu
_chemical_formula_sum   'Nd2 Cu1'
_cell_volume   187.84005024
_cell_formula_units_Z   1
loop_
 _symmetry_equiv_pos_site_id
 _symmetry_equiv_pos_as_xyz
  1  'x, y, z'
loop_
 _atom_site_type_symbol
 _atom_site_label
 _atom_site_symmetry_multiplicity
 _atom_site_fract_x
 _atom_site_fract_y
 _atom_site_fract_z
 _atom_site_occupancy
  Nd  Nd0  1  0.99693700  1.00000000  0.99387400  1.0
  Nd  Nd1  1  0.33004800  0.00000000  0.66009600  1.0
  Cu  Cu2  1  0.77380800  0.50000000  0.54761600  1.0
