# generated using pymatgen
data_FeCu3
_symmetry_space_group_name_H-M   'P 1'
_cell_length_a   4.15990000
_cell_length_b   5.16888400
_cell_length_c   5.16888413
_cell_angle_alpha   60.00000082
_cell_angle_beta   90.00000000
_cell_angle_gamma   90.00000000
_symmetry_Int_Tables_number   1
_chemical_formula_structural   FeCu3
_chemical_formula_sum   'Fe2 Cu6'
_cell_volume   96.25141190
_cell_formula_units_Z   2
loop_
 _symmetry_equiv_pos_site_id
 _symmetry_equiv_pos_as_xyz
  1  'x, y, z'
loop_
 _atom_site_type_symbol
 _atom_site_label
 _atom_site_symmetry_multiplicity
 _atom_site_fract_x
 _atom_site_fract_y
 _atom_site_fract_z
 _atom_site_occupancy
  Fe  Fe0  1  0.25000000  0.33333333  0.33333333  1.0
  Fe  Fe1  1  0.75000000  0.66666667  0.66666667  1.0
  Cu  Cu2  1  0.75000000  0.66644900  0.16677500  1.0
  Cu  Cu3  1  0.75000000  0.16677600  0.16677500  1.0
  Cu  Cu4  1  0.75000000  0.16677600  0.66644800  1.0
  Cu  Cu5  1  0.25000000  0.33355100  0.83322500  1.0
  Cu  Cu6  1  0.25000000  0.83322400  0.83322500  1.0
  Cu  Cu7  1  0.25000000  0.83322400  0.33355200  1.0
