# generated using pymatgen
data_Mn
_symmetry_space_group_name_H-M   'P 1'
_cell_length_a   3.00815100
_cell_length_b   9.10823200
_cell_length_c   10.49544100
_cell_angle_alpha   90.00000000
_cell_angle_beta   90.00000000
_cell_angle_gamma   90.00000000
_symmetry_Int_Tables_number   1
_chemical_formula_structural   Mn
_chemical_formula_sum   Mn8
_cell_volume   287.56392884
_cell_formula_units_Z   8
loop_
 _symmetry_equiv_pos_site_id
 _symmetry_equiv_pos_as_xyz
  1  'x, y, z'
loop_
 _atom_site_type_symbol
 _atom_site_label
 _atom_site_symmetry_multiplicity
 _atom_site_fract_x
 _atom_site_fract_y
 _atom_site_fract_z
 _atom_site_occupancy
  Mn  Mn0  1  0.75000000  0.91645100  0.10515400  1.0
  Mn  Mn1  1  0.25000000  0.58354900  0.60515400  1.0
  Mn  Mn2  1  0.75000000  0.41645100  0.39484600  1.0
  Mn  Mn3  1  0.25000000  0.08354900  0.89484600  1.0
  Mn  Mn4  1  0.25000000  0.06545500  0.38296200  1.0
  Mn  Mn5  1  0.75000000  0.93454500  0.61703800  1.0
  Mn  Mn6  1  0.25000000  0.56545500  0.11703800  1.0
  Mn  Mn7  1  0.75000000  0.43454500  0.88296200  1.0
