# generated using pymatgen
data_NdNi4
_symmetry_space_group_name_H-M   'P 1'
_cell_length_a   5.05340800
_cell_length_b   5.05340826
_cell_length_c   6.98082200
_cell_angle_alpha   90.00000000
_cell_angle_beta   90.00000000
_cell_angle_gamma   119.99999832
_symmetry_Int_Tables_number   1
_chemical_formula_structural   NdNi4
_chemical_formula_sum   'Nd2 Ni8'
_cell_volume   154.38530250
_cell_formula_units_Z   2
loop_
 _symmetry_equiv_pos_site_id
 _symmetry_equiv_pos_as_xyz
  1  'x, y, z'
loop_
 _atom_site_type_symbol
 _atom_site_label
 _atom_site_symmetry_multiplicity
 _atom_site_fract_x
 _atom_site_fract_y
 _atom_site_fract_z
 _atom_site_occupancy
  Nd  Nd0  1  0.00000000  0.00000000  0.50000000  1.0
  Nd  Nd1  1  0.00000000  0.00000000  0.00000000  1.0
  Ni  Ni2  1  0.66666667  0.33333333  1.00000000  1.0
  Ni  Ni3  1  0.33333333  0.66666667  1.00000000  1.0
  Ni  Ni4  1  0.50000000  0.50000000  0.70667900  1.0
  Ni  Ni5  1  0.50000000  0.00000000  0.70667900  1.0
  Ni  Ni6  1  0.00000000  0.50000000  0.70667900  1.0
  Ni  Ni7  1  0.50000000  0.50000000  0.29332100  1.0
  Ni  Ni8  1  0.50000000  0.00000000  0.29332100  1.0
  Ni  Ni9  1  0.00000000  0.50000000  0.29332100  1.0
