# generated using pymatgen
data_V2Cr
_symmetry_space_group_name_H-M   'P 1'
_cell_length_a   8.59376400
_cell_length_b   9.41057000
_cell_length_c   14.72341377
_cell_angle_alpha   90.00000000
_cell_angle_beta   75.96779325
_cell_angle_gamma   90.00000000
_symmetry_Int_Tables_number   1
_chemical_formula_structural   V2Cr
_chemical_formula_sum   'V16 Cr8'
_cell_volume   1155.18369046
_cell_formula_units_Z   8
loop_
 _symmetry_equiv_pos_site_id
 _symmetry_equiv_pos_as_xyz
  1  'x, y, z'
loop_
 _atom_site_type_symbol
 _atom_site_label
 _atom_site_symmetry_multiplicity
 _atom_site_fract_x
 _atom_site_fract_y
 _atom_site_fract_z
 _atom_site_occupancy
  V  V0  1  0.11972300  0.24179800  0.07341900  1.0
  V  V1  1  0.28565500  0.72339400  0.15757200  1.0
  V  V2  1  0.20833600  0.30535100  0.33870100  1.0
  V  V3  1  0.11972300  0.25820200  0.57341900  1.0
  V  V4  1  0.50823500  0.25384800  0.07305600  1.0
  V  V5  1  0.28565500  0.77660600  0.65757200  1.0
  V  V6  1  0.20833600  0.19464900  0.83870100  1.0
  V  V7  1  0.49176500  0.75384800  0.42694400  1.0
  V  V8  1  0.50823500  0.24615200  0.57305600  1.0
  V  V9  1  0.79166400  0.80535100  0.16129900  1.0
  V  V10  1  0.71434500  0.22339400  0.34242800  1.0
  V  V11  1  0.49176500  0.74615200  0.92694400  1.0
  V  V12  1  0.88027700  0.74179800  0.42658100  1.0
  V  V13  1  0.79166400  0.69464900  0.66129900  1.0
  V  V14  1  0.71434500  0.27660600  0.84242800  1.0
  V  V15  1  0.88027700  0.75820200  0.92658100  1.0
  Cr  Cr16  1  0.05601500  0.00202200  0.27625200  1.0
  Cr  Cr17  1  0.05601500  0.49797800  0.77625200  1.0
  Cr  Cr18  1  0.42993200  0.99765900  0.25977600  1.0
  Cr  Cr19  1  0.57006800  0.49765900  0.24022400  1.0
  Cr  Cr20  1  0.42993200  0.50234100  0.75977700  1.0
  Cr  Cr21  1  0.57006800  0.00234100  0.74022400  1.0
  Cr  Cr22  1  0.94398500  0.50202200  0.22374800  1.0
  Cr  Cr23  1  0.94398500  0.99797800  0.72374800  1.0
