# generated using pymatgen
data_Er3Cu4
_symmetry_space_group_name_H-M   'P 1'
_cell_length_a   4.17453200
_cell_length_b   6.64131000
_cell_length_c   7.94960730
_cell_angle_alpha   114.69028905
_cell_angle_beta   105.22214566
_cell_angle_gamma   90.00000001
_symmetry_Int_Tables_number   1
_chemical_formula_structural   Er3Cu4
_chemical_formula_sum   'Er3 Cu4'
_cell_volume   191.70514116
_cell_formula_units_Z   1
loop_
 _symmetry_equiv_pos_site_id
 _symmetry_equiv_pos_as_xyz
  1  'x, y, z'
loop_
 _atom_site_type_symbol
 _atom_site_label
 _atom_site_symmetry_multiplicity
 _atom_site_fract_x
 _atom_site_fract_y
 _atom_site_fract_z
 _atom_site_occupancy
  Er  Er0  1  0.62899400  0.12899400  0.25798800  1.0
  Er  Er1  1  0.37100600  0.87100600  0.74201200  1.0
  Er  Er2  1  0.50000000  0.50000000  0.00000000  1.0
  Cu  Cu3  1  0.17113900  0.86294300  0.34227900  1.0
  Cu  Cu4  1  0.17114000  0.47933600  0.34228000  1.0
  Cu  Cu5  1  0.82886100  0.13705700  0.65772100  1.0
  Cu  Cu6  1  0.82886000  0.52066400  0.65772000  1.0
