# generated using pymatgen
data_Eu
_symmetry_space_group_name_H-M   'P 1'
_cell_length_a   4.59308800
_cell_length_b   5.85951832
_cell_length_c   25.61244200
_cell_angle_alpha   90.00000000
_cell_angle_beta   90.00000000
_cell_angle_gamma   113.07488737
_symmetry_Int_Tables_number   1
_chemical_formula_structural   Eu
_chemical_formula_sum   Eu10
_cell_volume   634.16514441
_cell_formula_units_Z   10
loop_
 _symmetry_equiv_pos_site_id
 _symmetry_equiv_pos_as_xyz
  1  'x, y, z'
loop_
 _atom_site_type_symbol
 _atom_site_label
 _atom_site_symmetry_multiplicity
 _atom_site_fract_x
 _atom_site_fract_y
 _atom_site_fract_z
 _atom_site_occupancy
  Eu  Eu0  1  0.65061700  0.30123400  0.95855700  1.0
  Eu  Eu1  1  0.34938300  0.69876600  0.04144300  1.0
  Eu  Eu2  1  0.65061700  0.30123400  0.54144300  1.0
  Eu  Eu3  1  0.34938300  0.69876600  0.45855700  1.0
  Eu  Eu4  1  0.15643400  0.31286800  0.16717800  1.0
  Eu  Eu5  1  0.84356600  0.68713200  0.83282200  1.0
  Eu  Eu6  1  0.15643400  0.31286800  0.33282200  1.0
  Eu  Eu7  1  0.84356600  0.68713200  0.66717800  1.0
  Eu  Eu8  1  0.12819600  0.25639200  0.75000000  1.0
  Eu  Eu9  1  0.87180400  0.74360800  0.25000000  1.0
