# generated using pymatgen
data_Fe
_symmetry_space_group_name_H-M   'P 1'
_cell_length_a   9.69259600
_cell_length_b   9.74538908
_cell_length_c   11.21361600
_cell_angle_alpha   89.92244198
_cell_angle_beta   101.65772335
_cell_angle_gamma   89.91757260
_symmetry_Int_Tables_number   1
_chemical_formula_structural   Fe
_chemical_formula_sum   Fe8
_cell_volume   1037.36519580
_cell_formula_units_Z   8
loop_
 _symmetry_equiv_pos_site_id
 _symmetry_equiv_pos_as_xyz
  1  'x, y, z'
loop_
 _atom_site_type_symbol
 _atom_site_label
 _atom_site_symmetry_multiplicity
 _atom_site_fract_x
 _atom_site_fract_y
 _atom_site_fract_z
 _atom_site_occupancy
  Fe  Fe0  1  0.20368900  0.91721400  0.67475100  1.0
  Fe  Fe1  1  0.24498900  0.21079200  0.82878100  1.0
  Fe  Fe2  1  0.23805200  0.72189600  0.17228600  1.0
  Fe  Fe3  1  0.29963800  0.42042700  0.32170700  1.0
  Fe  Fe4  1  0.70366100  0.58574100  0.68019800  1.0
  Fe  Fe5  1  0.74835200  0.28871300  0.82590000  1.0
  Fe  Fe6  1  0.73890000  0.77201400  0.16929900  1.0
  Fe  Fe7  1  0.80247200  0.07364500  0.32258500  1.0
