# generated using pymatgen
data_Nd2Ni
_symmetry_space_group_name_H-M   'P 1'
_cell_length_a   3.86405797
_cell_length_b   5.98710180
_cell_length_c   6.89677981
_cell_angle_alpha   64.27895484
_cell_angle_beta   73.73117169
_cell_angle_gamma   90.00193164
_symmetry_Int_Tables_number   1
_chemical_formula_structural   Nd2Ni
_chemical_formula_sum   'Nd2 Ni1'
_cell_volume   136.61772883
_cell_formula_units_Z   1
loop_
 _symmetry_equiv_pos_site_id
 _symmetry_equiv_pos_as_xyz
  1  'x, y, z'
loop_
 _atom_site_type_symbol
 _atom_site_label
 _atom_site_symmetry_multiplicity
 _atom_site_fract_x
 _atom_site_fract_y
 _atom_site_fract_z
 _atom_site_occupancy
  Nd  Nd0  1  0.29729801  0.79727521  0.40548942  1.0
  Nd  Nd1  1  0.70269883  0.20272240  0.59451348  1.0
  Ni  Ni2  1  0.00000074  0.00000031  0.99999915  1.0
