# generated using pymatgen
data_EuCu
_symmetry_space_group_name_H-M   'P 1'
_cell_length_a   4.55219600
_cell_length_b   5.96853191
_cell_length_c   6.09092107
_cell_angle_alpha   77.65084130
_cell_angle_beta   68.05681559
_cell_angle_gamma   67.58268722
_symmetry_Int_Tables_number   1
_chemical_formula_structural   EuCu
_chemical_formula_sum   'Eu2 Cu2'
_cell_volume   141.40870832
_cell_formula_units_Z   2
loop_
 _symmetry_equiv_pos_site_id
 _symmetry_equiv_pos_as_xyz
  1  'x, y, z'
loop_
 _atom_site_type_symbol
 _atom_site_label
 _atom_site_symmetry_multiplicity
 _atom_site_fract_x
 _atom_site_fract_y
 _atom_site_fract_z
 _atom_site_occupancy
  Eu  Eu0  1  0.54623100  0.21390700  0.69363100  1.0
  Eu  Eu1  1  0.45376900  0.78609300  0.30636900  1.0
  Cu  Cu2  1  0.15433500  0.39538100  0.29594900  1.0
  Cu  Cu3  1  0.84566500  0.60461900  0.70405100  1.0
