# generated using pymatgen
data_Ho3Ti2
_symmetry_space_group_name_H-M   'P 1'
_cell_length_a   11.08066400
_cell_length_b   11.08066442
_cell_length_c   17.75162900
_cell_angle_alpha   90.00000000
_cell_angle_beta   90.00000000
_cell_angle_gamma   119.99999874
_symmetry_Int_Tables_number   1
_chemical_formula_structural   Ho3Ti2
_chemical_formula_sum   'Ho12 Ti8'
_cell_volume   1887.55857790
_cell_formula_units_Z   4
loop_
 _symmetry_equiv_pos_site_id
 _symmetry_equiv_pos_as_xyz
  1  'x, y, z'
loop_
 _atom_site_type_symbol
 _atom_site_label
 _atom_site_symmetry_multiplicity
 _atom_site_fract_x
 _atom_site_fract_y
 _atom_site_fract_z
 _atom_site_occupancy
  Ho  Ho0  1  0.46920000  0.46920000  0.40370300  1.0
  Ho  Ho1  1  0.53080000  0.53080000  0.59629700  1.0
  Ho  Ho2  1  0.00000000  0.53080000  0.40370300  1.0
  Ho  Ho3  1  0.53080000  0.53080000  0.90370300  1.0
  Ho  Ho4  1  0.00000000  0.53080000  0.09629700  1.0
  Ho  Ho5  1  1.00000000  0.46920000  0.59629700  1.0
  Ho  Ho6  1  0.46920000  0.46920000  0.09629700  1.0
  Ho  Ho7  1  1.00000000  0.46920000  0.90370300  1.0
  Ho  Ho8  1  0.53080000  0.00000000  0.40370300  1.0
  Ho  Ho9  1  0.46920000  0.00000000  0.59629700  1.0
  Ho  Ho10  1  0.46920000  0.00000000  0.90370300  1.0
  Ho  Ho11  1  0.53080000  0.00000000  0.09629700  1.0
  Ti  Ti12  1  0.00000000  0.00000000  0.50000000  1.0
  Ti  Ti13  1  0.00000000  0.00000000  0.00000000  1.0
  Ti  Ti14  1  0.27135000  0.27135000  0.25000000  1.0
  Ti  Ti15  1  0.72865000  0.72865000  0.75000000  1.0
  Ti  Ti16  1  0.00000000  0.72865000  0.25000000  1.0
  Ti  Ti17  1  0.00000000  0.27135000  0.75000000  1.0
  Ti  Ti18  1  0.72865000  0.00000000  0.25000000  1.0
  Ti  Ti19  1  0.27135000  0.00000000  0.75000000  1.0
