# generated using pymatgen
data_Mn
_symmetry_space_group_name_H-M   'P 1'
_cell_length_a   4.49251905
_cell_length_b   4.49262205
_cell_length_c   7.94015058
_cell_angle_alpha   73.58039201
_cell_angle_beta   73.58047913
_cell_angle_gamma   89.99499952
_symmetry_Int_Tables_number   1
_chemical_formula_structural   Mn
_chemical_formula_sum   Mn2
_cell_volume   146.89688163
_cell_formula_units_Z   2
loop_
 _symmetry_equiv_pos_site_id
 _symmetry_equiv_pos_as_xyz
  1  'x, y, z'
loop_
 _atom_site_type_symbol
 _atom_site_label
 _atom_site_symmetry_multiplicity
 _atom_site_fract_x
 _atom_site_fract_y
 _atom_site_fract_z
 _atom_site_occupancy
  Mn  Mn0  1  0.75000600  0.24997400  0.50001200  1.0
  Mn  Mn1  1  0.24999600  0.75001700  0.49998800  1.0
