# generated using pymatgen
data_ErMn6
_symmetry_space_group_name_H-M   'P 1'
_cell_length_a   5.45388000
_cell_length_b   5.45388032
_cell_length_c   9.00283000
_cell_angle_alpha   90.00000000
_cell_angle_beta   90.00000000
_cell_angle_gamma   119.99999805
_symmetry_Int_Tables_number   1
_chemical_formula_structural   ErMn6
_chemical_formula_sum   'Er1 Mn6'
_cell_volume   231.91074507
_cell_formula_units_Z   1
loop_
 _symmetry_equiv_pos_site_id
 _symmetry_equiv_pos_as_xyz
  1  'x, y, z'
loop_
 _atom_site_type_symbol
 _atom_site_label
 _atom_site_symmetry_multiplicity
 _atom_site_fract_x
 _atom_site_fract_y
 _atom_site_fract_z
 _atom_site_occupancy
  Er  Er0  1  0.00000000  0.00000000  0.00000000  1.0
  Mn  Mn1  1  0.50000000  0.00000000  0.24860800  1.0
  Mn  Mn2  1  0.50000000  0.50000000  0.24860800  1.0
  Mn  Mn3  1  1.00000000  0.50000000  0.24860800  1.0
  Mn  Mn4  1  0.50000000  0.00000000  0.75139200  1.0
  Mn  Mn5  1  0.50000000  0.50000000  0.75139200  1.0
  Mn  Mn6  1  1.00000000  0.50000000  0.75139200  1.0
