# generated using pymatgen
data_TbMn
_symmetry_space_group_name_H-M   'P 1'
_cell_length_a   5.33684900
_cell_length_b   5.88754600
_cell_length_c   7.51291700
_cell_angle_alpha   90.00000000
_cell_angle_beta   90.00000000
_cell_angle_gamma   90.00000000
_symmetry_Int_Tables_number   1
_chemical_formula_structural   TbMn
_chemical_formula_sum   'Tb4 Mn4'
_cell_volume   236.06294420
_cell_formula_units_Z   4
loop_
 _symmetry_equiv_pos_site_id
 _symmetry_equiv_pos_as_xyz
  1  'x, y, z'
loop_
 _atom_site_type_symbol
 _atom_site_label
 _atom_site_symmetry_multiplicity
 _atom_site_fract_x
 _atom_site_fract_y
 _atom_site_fract_z
 _atom_site_occupancy
  Tb  Tb0  1  0.51882200  0.58212500  0.25000000  1.0
  Tb  Tb1  1  0.98117800  0.08212500  0.25000000  1.0
  Tb  Tb2  1  0.48117800  0.41787500  0.75000000  1.0
  Tb  Tb3  1  0.01882200  0.91787500  0.75000000  1.0
  Mn  Mn4  1  0.00000000  0.50000000  0.00000000  1.0
  Mn  Mn5  1  0.50000000  0.00000000  0.50000000  1.0
  Mn  Mn6  1  0.00000000  0.50000000  0.50000000  1.0
  Mn  Mn7  1  0.50000000  0.00000000  0.00000000  1.0
