# generated using pymatgen
data_Pr
_symmetry_space_group_name_H-M   'P 1'
_cell_length_a   6.84040800
_cell_length_b   9.65196400
_cell_length_c   9.65196485
_cell_angle_alpha   119.99999709
_cell_angle_beta   90.00000000
_cell_angle_gamma   90.00000000
_symmetry_Int_Tables_number   1
_chemical_formula_structural   Pr
_chemical_formula_sum   Pr10
_cell_volume   551.87926314
_cell_formula_units_Z   10
loop_
 _symmetry_equiv_pos_site_id
 _symmetry_equiv_pos_as_xyz
  1  'x, y, z'
loop_
 _atom_site_type_symbol
 _atom_site_label
 _atom_site_symmetry_multiplicity
 _atom_site_fract_x
 _atom_site_fract_y
 _atom_site_fract_z
 _atom_site_occupancy
  Pr  Pr0  1  0.25000000  0.72607300  0.72607300  1.0
  Pr  Pr1  1  0.75000000  0.27392700  0.27392700  1.0
  Pr  Pr2  1  0.25000000  0.00000000  0.27392700  1.0
  Pr  Pr3  1  0.75000000  0.00000000  0.72607300  1.0
  Pr  Pr4  1  0.25000000  0.27392700  0.00000000  1.0
  Pr  Pr5  1  0.75000000  0.72607300  0.00000000  1.0
  Pr  Pr6  1  0.50000000  0.66666667  0.33333333  1.0
  Pr  Pr7  1  0.50000000  0.33333333  0.66666667  1.0
  Pr  Pr8  1  0.00000000  0.33333333  0.66666667  1.0
  Pr  Pr9  1  0.00000000  0.66666667  0.33333333  1.0
