# generated using pymatgen
data_HoCo2
_symmetry_space_group_name_H-M   'P 1'
_cell_length_a   3.87059400
_cell_length_b   3.87059400
_cell_length_c   5.58390068
_cell_angle_alpha   110.27858871
_cell_angle_beta   110.27858870
_cell_angle_gamma   90.00000001
_symmetry_Int_Tables_number   1
_chemical_formula_structural   HoCo2
_chemical_formula_sum   'Ho1 Co2'
_cell_volume   72.91727267
_cell_formula_units_Z   1
loop_
 _symmetry_equiv_pos_site_id
 _symmetry_equiv_pos_as_xyz
  1  'x, y, z'
loop_
 _atom_site_type_symbol
 _atom_site_label
 _atom_site_symmetry_multiplicity
 _atom_site_fract_x
 _atom_site_fract_y
 _atom_site_fract_z
 _atom_site_occupancy
  Ho  Ho0  1  0.00000000  0.00000000  0.00000000  1.0
  Co  Co1  1  0.75000000  0.25000000  0.50000000  1.0
  Co  Co2  1  0.25000000  0.75000000  0.50000000  1.0
