# generated using pymatgen
data_UNi
_symmetry_space_group_name_H-M   'P 1'
_cell_length_a   3.72916900
_cell_length_b   7.18806100
_cell_length_c   7.18806100
_cell_angle_alpha   90.00000000
_cell_angle_beta   90.00000000
_cell_angle_gamma   90.00000000
_symmetry_Int_Tables_number   1
_chemical_formula_structural   UNi
_chemical_formula_sum   'U4 Ni4'
_cell_volume   192.67952781
_cell_formula_units_Z   4
loop_
 _symmetry_equiv_pos_site_id
 _symmetry_equiv_pos_as_xyz
  1  'x, y, z'
loop_
 _atom_site_type_symbol
 _atom_site_label
 _atom_site_symmetry_multiplicity
 _atom_site_fract_x
 _atom_site_fract_y
 _atom_site_fract_z
 _atom_site_occupancy
  U  U0  1  0.50000000  0.16332000  0.33668000  1.0
  U  U1  1  0.50000000  0.83668000  0.66332000  1.0
  U  U2  1  0.50000000  0.66332000  0.16332000  1.0
  U  U3  1  0.50000000  0.33668000  0.83668000  1.0
  Ni  Ni4  1  0.00000000  0.36825000  0.13175000  1.0
  Ni  Ni5  1  1.00000000  0.63175000  0.86825000  1.0
  Ni  Ni6  1  1.00000000  0.13175000  0.63175000  1.0
  Ni  Ni7  1  0.00000000  0.86825000  0.36825000  1.0
