# generated using pymatgen
data_CePd
_symmetry_space_group_name_H-M   'P 1'
_cell_length_a   4.17949800
_cell_length_b   7.18294600
_cell_length_c   7.18294539
_cell_angle_alpha   120.00000283
_cell_angle_beta   90.00000000
_cell_angle_gamma   90.00000000
_symmetry_Int_Tables_number   1
_chemical_formula_structural   CePd
_chemical_formula_sum   'Ce3 Pd3'
_cell_volume   186.74969769
_cell_formula_units_Z   3
loop_
 _symmetry_equiv_pos_site_id
 _symmetry_equiv_pos_as_xyz
  1  'x, y, z'
loop_
 _atom_site_type_symbol
 _atom_site_label
 _atom_site_symmetry_multiplicity
 _atom_site_fract_x
 _atom_site_fract_y
 _atom_site_fract_z
 _atom_site_occupancy
  Ce  Ce0  1  0.50000000  1.00000000  0.57769700  1.0
  Ce  Ce1  1  0.50000000  0.57769700  0.00000000  1.0
  Ce  Ce2  1  0.50000000  0.42230300  0.42230300  1.0
  Pd  Pd3  1  0.50000000  0.00000000  0.00000000  1.0
  Pd  Pd4  1  0.00000000  0.66666667  0.33333333  1.0
  Pd  Pd5  1  1.00000000  0.33333333  0.66666667  1.0
