# generated using pymatgen
data_Fe
_symmetry_space_group_name_H-M   'P 1'
_cell_length_a   5.59350400
_cell_length_b   7.86015200
_cell_length_c   11.13613700
_cell_angle_alpha   90.00000000
_cell_angle_beta   90.00000000
_cell_angle_gamma   90.00000000
_symmetry_Int_Tables_number   1
_chemical_formula_structural   Fe
_chemical_formula_sum   Fe8
_cell_volume   489.60907916
_cell_formula_units_Z   8
loop_
 _symmetry_equiv_pos_site_id
 _symmetry_equiv_pos_as_xyz
  1  'x, y, z'
loop_
 _atom_site_type_symbol
 _atom_site_label
 _atom_site_symmetry_multiplicity
 _atom_site_fract_x
 _atom_site_fract_y
 _atom_site_fract_z
 _atom_site_occupancy
  Fe  Fe0  1  0.75245900  0.00000000  0.62203300  1.0
  Fe  Fe1  1  0.73022700  0.50000000  0.63347100  1.0
  Fe  Fe2  1  0.24754100  0.00000000  0.37796700  1.0
  Fe  Fe3  1  0.26977300  0.50000000  0.36652900  1.0
  Fe  Fe4  1  0.74754100  0.50000000  0.12203300  1.0
  Fe  Fe5  1  0.76977300  0.00000000  0.13347100  1.0
  Fe  Fe6  1  0.23022700  0.00000000  0.86652900  1.0
  Fe  Fe7  1  0.25245900  0.50000000  0.87796700  1.0
