# generated using pymatgen
data_Cr
_symmetry_space_group_name_H-M   'P 1'
_cell_length_a   3.87230000
_cell_length_b   3.87230000
_cell_length_c   14.45735488
_cell_angle_alpha   97.69625748
_cell_angle_beta   97.69625749
_cell_angle_gamma   89.99999997
_symmetry_Int_Tables_number   1
_chemical_formula_structural   Cr
_chemical_formula_sum   Cr3
_cell_volume   212.86029115
_cell_formula_units_Z   3
loop_
 _symmetry_equiv_pos_site_id
 _symmetry_equiv_pos_as_xyz
  1  'x, y, z'
loop_
 _atom_site_type_symbol
 _atom_site_label
 _atom_site_symmetry_multiplicity
 _atom_site_fract_x
 _atom_site_fract_y
 _atom_site_fract_z
 _atom_site_occupancy
  Cr  Cr0  1  0.13929500  0.13929500  0.27859000  1.0
  Cr  Cr1  1  0.86070500  0.86070500  0.72141000  1.0
  Cr  Cr2  1  0.00000000  0.00000000  0.00000000  1.0
