# generated using pymatgen
data_EuGd2
_symmetry_space_group_name_H-M   'P 1'
_cell_length_a   7.34951306
_cell_length_b   7.34951306
_cell_length_c   7.34951306
_cell_angle_alpha   109.82019203
_cell_angle_beta   109.29701724
_cell_angle_gamma   109.29701724
_symmetry_Int_Tables_number   1
_chemical_formula_structural   EuGd2
_chemical_formula_sum   'Eu2 Gd4'
_cell_volume   305.59181312
_cell_formula_units_Z   2
loop_
 _symmetry_equiv_pos_site_id
 _symmetry_equiv_pos_as_xyz
  1  'x, y, z'
loop_
 _atom_site_type_symbol
 _atom_site_label
 _atom_site_symmetry_multiplicity
 _atom_site_fract_x
 _atom_site_fract_y
 _atom_site_fract_z
 _atom_site_occupancy
  Eu  Eu0  1  0.50000000  0.25000000  0.75000000  1.0
  Eu  Eu1  1  0.00000000  0.00000000  0.00000000  1.0
  Gd  Gd2  1  0.12354100  0.62500000  0.24854100  1.0
  Gd  Gd3  1  0.62354100  0.49854100  0.37500000  1.0
  Gd  Gd4  1  0.87645900  0.12500000  0.50145900  1.0
  Gd  Gd5  1  0.37645900  0.75145900  0.87500000  1.0
