# generated using pymatgen
data_NdRh
_symmetry_space_group_name_H-M   'P 1'
_cell_length_a   4.18519400
_cell_length_b   7.49636800
_cell_length_c   7.49636789
_cell_angle_alpha   120.00000048
_cell_angle_beta   90.00000000
_cell_angle_gamma   90.00000000
_symmetry_Int_Tables_number   1
_chemical_formula_structural   NdRh
_chemical_formula_sum   'Nd3 Rh3'
_cell_volume   203.67982509
_cell_formula_units_Z   3
loop_
 _symmetry_equiv_pos_site_id
 _symmetry_equiv_pos_as_xyz
  1  'x, y, z'
loop_
 _atom_site_type_symbol
 _atom_site_label
 _atom_site_symmetry_multiplicity
 _atom_site_fract_x
 _atom_site_fract_y
 _atom_site_fract_z
 _atom_site_occupancy
  Nd  Nd0  1  1.00000000  0.00000000  0.58670800  1.0
  Nd  Nd1  1  0.00000000  0.58670800  1.00000000  1.0
  Nd  Nd2  1  0.00000000  0.41329200  0.41329200  1.0
  Rh  Rh3  1  0.00000000  0.00000000  0.00000000  1.0
  Rh  Rh4  1  0.50000000  0.33333333  0.66666667  1.0
  Rh  Rh5  1  0.50000000  0.66666667  0.33333333  1.0
