# generated using pymatgen
data_Sm
_symmetry_space_group_name_H-M   'P 1'
_cell_length_a   4.65621800
_cell_length_b   7.41645800
_cell_length_c   8.90513341
_cell_angle_alpha   114.60844238
_cell_angle_beta   105.15519667
_cell_angle_gamma   89.99999999
_symmetry_Int_Tables_number   1
_chemical_formula_structural   Sm
_chemical_formula_sum   Sm3
_cell_volume   267.77911576
_cell_formula_units_Z   3
loop_
 _symmetry_equiv_pos_site_id
 _symmetry_equiv_pos_as_xyz
  1  'x, y, z'
loop_
 _atom_site_type_symbol
 _atom_site_label
 _atom_site_symmetry_multiplicity
 _atom_site_fract_x
 _atom_site_fract_y
 _atom_site_fract_z
 _atom_site_occupancy
  Sm  Sm0  1  0.12911600  0.62911600  0.25823200  1.0
  Sm  Sm1  1  0.87088400  0.37088400  0.74176800  1.0
  Sm  Sm2  1  0.00000000  0.00000000  0.00000000  1.0
