# generated using pymatgen
data_Nd6Fe13Cu
_symmetry_space_group_name_H-M   'P 1'
_cell_length_a   8.03412400
_cell_length_b   8.03412400
_cell_length_c   12.76427183
_cell_angle_alpha   108.34339283
_cell_angle_beta   108.34339283
_cell_angle_gamma   90.00000000
_symmetry_Int_Tables_number   1
_chemical_formula_structural   Nd6Fe13Cu
_chemical_formula_sum   'Nd12 Fe26 Cu2'
_cell_volume   737.79694981
_cell_formula_units_Z   2
loop_
 _symmetry_equiv_pos_site_id
 _symmetry_equiv_pos_as_xyz
  1  'x, y, z'
loop_
 _atom_site_type_symbol
 _atom_site_label
 _atom_site_symmetry_multiplicity
 _atom_site_fract_x
 _atom_site_fract_y
 _atom_site_fract_z
 _atom_site_occupancy
  Nd  Nd0  1  0.60801400  0.60801400  0.21602800  1.0
  Nd  Nd1  1  0.10801400  0.10801400  0.21602800  1.0
  Nd  Nd2  1  0.39198600  0.39198600  0.78397200  1.0
  Nd  Nd3  1  0.89198600  0.89198600  0.78397200  1.0
  Nd  Nd4  1  0.47695100  0.64814500  0.62509600  1.0
  Nd  Nd5  1  0.14814500  0.97695100  0.62509600  1.0
  Nd  Nd6  1  0.97695100  0.47695100  0.62509600  1.0
  Nd  Nd7  1  0.64814500  0.14814500  0.62509600  1.0
  Nd  Nd8  1  0.52304900  0.35185500  0.37490400  1.0
  Nd  Nd9  1  0.85185500  0.02304900  0.37490400  1.0
  Nd  Nd10  1  0.02304900  0.52304900  0.37490400  1.0
  Nd  Nd11  1  0.35185500  0.85185500  0.37490400  1.0
  Fe  Fe12  1  0.50000000  0.00000000  0.00000000  1.0
  Fe  Fe13  1  0.00000000  0.50000000  1.00000000  1.0
  Fe  Fe14  1  0.56754600  0.28943500  0.00000100  1.0
  Fe  Fe15  1  0.43245400  0.71056500  0.99999900  1.0
  Fe  Fe16  1  0.06754600  0.21056600  0.00000000  1.0
  Fe  Fe17  1  0.93245400  0.78943400  0.00000000  1.0
  Fe  Fe18  1  0.28943400  0.43245400  0.00000000  1.0
  Fe  Fe19  1  0.71056600  0.56754600  0.00000000  1.0
  Fe  Fe20  1  0.21056600  0.93245500  0.00000100  1.0
  Fe  Fe21  1  0.78943400  0.06754500  0.99999900  1.0
  Fe  Fe22  1  0.61920600  0.76164600  0.88085200  1.0
  Fe  Fe23  1  0.26164600  0.11920600  0.88085200  1.0
  Fe  Fe24  1  0.11920600  0.61920600  0.88085200  1.0
  Fe  Fe25  1  0.76164600  0.26164600  0.88085200  1.0
  Fe  Fe26  1  0.38079400  0.23835400  0.11914800  1.0
  Fe  Fe27  1  0.73835400  0.88079400  0.11914800  1.0
  Fe  Fe28  1  0.88079400  0.38079400  0.11914800  1.0
  Fe  Fe29  1  0.23835400  0.73835400  0.11914800  1.0
  Fe  Fe30  1  0.79038000  0.51810600  0.80848600  1.0
  Fe  Fe31  1  0.01810600  0.29038000  0.80848600  1.0
  Fe  Fe32  1  0.29038000  0.79038000  0.80848600  1.0
  Fe  Fe33  1  0.51810600  0.01810600  0.80848600  1.0
  Fe  Fe34  1  0.20962000  0.48189400  0.19151400  1.0
  Fe  Fe35  1  0.98189400  0.70962000  0.19151400  1.0
  Fe  Fe36  1  0.70962000  0.20962000  0.19151400  1.0
  Fe  Fe37  1  0.48189400  0.98189400  0.19151400  1.0
  Cu  Cu38  1  0.25000000  0.25000000  0.50000000  1.0
  Cu  Cu39  1  0.75000000  0.75000000  0.50000000  1.0
