# generated using pymatgen
data_TbNi4
_symmetry_space_group_name_H-M   'P 1'
_cell_length_a   4.97396600
_cell_length_b   4.97396521
_cell_length_c   6.95790000
_cell_angle_alpha   90.00000000
_cell_angle_beta   90.00000000
_cell_angle_gamma   120.00000526
_symmetry_Int_Tables_number   1
_chemical_formula_structural   TbNi4
_chemical_formula_sum   'Tb2 Ni8'
_cell_volume   149.07827095
_cell_formula_units_Z   2
loop_
 _symmetry_equiv_pos_site_id
 _symmetry_equiv_pos_as_xyz
  1  'x, y, z'
loop_
 _atom_site_type_symbol
 _atom_site_label
 _atom_site_symmetry_multiplicity
 _atom_site_fract_x
 _atom_site_fract_y
 _atom_site_fract_z
 _atom_site_occupancy
  Tb  Tb0  1  0.00000000  0.00000000  0.50000000  1.0
  Tb  Tb1  1  0.00000000  0.00000000  0.00000000  1.0
  Ni  Ni2  1  0.66666667  0.33333333  0.00000000  1.0
  Ni  Ni3  1  0.33333333  0.66666667  0.00000000  1.0
  Ni  Ni4  1  0.50000000  0.50000000  0.70798700  1.0
  Ni  Ni5  1  0.50000000  1.00000000  0.70798700  1.0
  Ni  Ni6  1  0.00000000  0.50000000  0.70798700  1.0
  Ni  Ni7  1  0.50000000  0.50000000  0.29201300  1.0
  Ni  Ni8  1  0.50000000  1.00000000  0.29201300  1.0
  Ni  Ni9  1  0.00000000  0.50000000  0.29201300  1.0
