# generated using pymatgen
data_Dy3Co8
_symmetry_space_group_name_H-M   'P 1'
_cell_length_a   7.54230900
_cell_length_b   8.81710200
_cell_length_c   8.81710259
_cell_angle_alpha   119.99999779
_cell_angle_beta   90.00000000
_cell_angle_gamma   90.00000000
_symmetry_Int_Tables_number   1
_chemical_formula_structural   Dy3Co8
_chemical_formula_sum   'Dy6 Co16'
_cell_volume   507.79301351
_cell_formula_units_Z   2
loop_
 _symmetry_equiv_pos_site_id
 _symmetry_equiv_pos_as_xyz
  1  'x, y, z'
loop_
 _atom_site_type_symbol
 _atom_site_label
 _atom_site_symmetry_multiplicity
 _atom_site_fract_x
 _atom_site_fract_y
 _atom_site_fract_z
 _atom_site_occupancy
  Dy  Dy0  1  0.78547900  0.95012900  0.47506500  1.0
  Dy  Dy1  1  0.78547900  0.52493600  0.04987200  1.0
  Dy  Dy2  1  0.28547900  0.04987100  0.52493500  1.0
  Dy  Dy3  1  0.78547900  0.52493600  0.47506500  1.0
  Dy  Dy4  1  0.28547900  0.47506400  0.95012800  1.0
  Dy  Dy5  1  0.28547900  0.47506400  0.52493500  1.0
  Co  Co6  1  0.62562200  0.33333333  0.66666667  1.0
  Co  Co7  1  0.12562200  0.66666667  0.33333333  1.0
  Co  Co8  1  0.75605600  0.19680100  0.09840100  1.0
  Co  Co9  1  0.75605600  0.90160000  0.80320000  1.0
  Co  Co10  1  0.25605600  0.80319900  0.90159900  1.0
  Co  Co11  1  0.75605600  0.90160000  0.09840100  1.0
  Co  Co12  1  0.25605600  0.09840000  0.19680000  1.0
  Co  Co13  1  0.25605600  0.09840000  0.90159900  1.0
  Co  Co14  1  0.94012700  0.67919300  0.83959600  1.0
  Co  Co15  1  0.94012700  0.16040300  0.32080600  1.0
  Co  Co16  1  0.44012700  0.32080700  0.16040400  1.0
  Co  Co17  1  0.94012700  0.16040300  0.83959600  1.0
  Co  Co18  1  0.44012700  0.83959700  0.67919400  1.0
  Co  Co19  1  0.44012700  0.83959700  0.16040400  1.0
  Co  Co20  1  0.99948800  0.00000000  0.00000000  1.0
  Co  Co21  1  0.49948800  1.00000000  1.00000000  1.0
