# generated using pymatgen
data_DyIr
_symmetry_space_group_name_H-M   'P 1'
_cell_length_a   4.28354600
_cell_length_b   8.91910000
_cell_length_c   9.44903004
_cell_angle_alpha   118.16150198
_cell_angle_beta   103.10085906
_cell_angle_gamma   89.99999999
_symmetry_Int_Tables_number   1
_chemical_formula_structural   DyIr
_chemical_formula_sum   'Dy4 Ir4'
_cell_volume   307.56962125
_cell_formula_units_Z   4
loop_
 _symmetry_equiv_pos_site_id
 _symmetry_equiv_pos_as_xyz
  1  'x, y, z'
loop_
 _atom_site_type_symbol
 _atom_site_label
 _atom_site_symmetry_multiplicity
 _atom_site_fract_x
 _atom_site_fract_y
 _atom_site_fract_z
 _atom_site_occupancy
  Dy  Dy0  1  1.00000000  0.26089900  1.00000000  1.0
  Dy  Dy1  1  1.00000000  0.73910100  1.00000000  1.0
  Dy  Dy2  1  0.20561100  0.70561100  0.41122200  1.0
  Dy  Dy3  1  0.79438900  0.29438900  0.58877800  1.0
  Ir  Ir4  1  0.64575900  0.39549500  0.29151700  1.0
  Ir  Ir5  1  0.35424100  0.60450500  0.70848300  1.0
  Ir  Ir6  1  0.64575800  0.89602200  0.29151600  1.0
  Ir  Ir7  1  0.35424200  0.10397800  0.70848400  1.0
