# generated using pymatgen
data_Nb
_symmetry_space_group_name_H-M   'P 1'
_cell_length_a   5.72365200
_cell_length_b   5.76026500
_cell_length_c   13.05287155
_cell_angle_alpha   90.00000000
_cell_angle_beta   102.66491334
_cell_angle_gamma   90.00000000
_symmetry_Int_Tables_number   1
_chemical_formula_structural   Nb
_chemical_formula_sum   Nb4
_cell_volume   419.87909290
_cell_formula_units_Z   4
loop_
 _symmetry_equiv_pos_site_id
 _symmetry_equiv_pos_as_xyz
  1  'x, y, z'
loop_
 _atom_site_type_symbol
 _atom_site_label
 _atom_site_symmetry_multiplicity
 _atom_site_fract_x
 _atom_site_fract_y
 _atom_site_fract_z
 _atom_site_occupancy
  Nb  Nb0  1  0.33715300  0.52286100  0.17089200  1.0
  Nb  Nb1  1  0.83373900  0.02286100  0.17089200  1.0
  Nb  Nb2  1  0.16626100  0.52286100  0.82910800  1.0
  Nb  Nb3  1  0.66284700  0.02286100  0.82910800  1.0
