# generated using pymatgen
data_Tm3Cr2
_symmetry_space_group_name_H-M   'P 1'
_cell_length_a   10.92869000
_cell_length_b   10.92868985
_cell_length_c   17.43908900
_cell_angle_alpha   90.00000000
_cell_angle_beta   90.00000000
_cell_angle_gamma   120.00000045
_symmetry_Int_Tables_number   1
_chemical_formula_structural   Tm3Cr2
_chemical_formula_sum   'Tm12 Cr8'
_cell_volume   1803.80934230
_cell_formula_units_Z   4
loop_
 _symmetry_equiv_pos_site_id
 _symmetry_equiv_pos_as_xyz
  1  'x, y, z'
loop_
 _atom_site_type_symbol
 _atom_site_label
 _atom_site_symmetry_multiplicity
 _atom_site_fract_x
 _atom_site_fract_y
 _atom_site_fract_z
 _atom_site_occupancy
  Tm  Tm0  1  0.53029900  1.00000000  0.09522400  1.0
  Tm  Tm1  1  0.46970100  0.46970100  0.09522400  1.0
  Tm  Tm2  1  0.00000000  0.53029900  0.09522400  1.0
  Tm  Tm3  1  0.46970100  1.00000000  0.90477600  1.0
  Tm  Tm4  1  0.53029900  0.53029900  0.90477600  1.0
  Tm  Tm5  1  0.00000000  0.46970100  0.90477600  1.0
  Tm  Tm6  1  0.46970100  1.00000000  0.59522400  1.0
  Tm  Tm7  1  0.53029900  0.53029900  0.59522400  1.0
  Tm  Tm8  1  0.00000000  0.46970100  0.59522400  1.0
  Tm  Tm9  1  0.53029900  1.00000000  0.40477600  1.0
  Tm  Tm10  1  0.46970100  0.46970100  0.40477600  1.0
  Tm  Tm11  1  0.00000000  0.53029900  0.40477600  1.0
  Cr  Cr12  1  0.72973300  1.00000000  0.25000000  1.0
  Cr  Cr13  1  0.27026700  0.27026700  0.25000000  1.0
  Cr  Cr14  1  0.00000000  0.72973300  0.25000000  1.0
  Cr  Cr15  1  0.27026700  0.00000000  0.75000000  1.0
  Cr  Cr16  1  0.72973300  0.72973300  0.75000000  1.0
  Cr  Cr17  1  0.00000000  0.27026700  0.75000000  1.0
  Cr  Cr18  1  0.00000000  0.00000000  0.00000000  1.0
  Cr  Cr19  1  0.00000000  0.00000000  0.50000000  1.0
