# generated using pymatgen
data_GdNi2
_symmetry_space_group_name_H-M   'P 1'
_cell_length_a   3.58532200
_cell_length_b   3.58532200
_cell_length_c   5.73680392
_cell_angle_alpha   108.20900823
_cell_angle_beta   108.20900824
_cell_angle_gamma   89.99999998
_symmetry_Int_Tables_number   1
_chemical_formula_structural   GdNi2
_chemical_formula_sum   'Gd1 Ni2'
_cell_volume   66.15234900
_cell_formula_units_Z   1
loop_
 _symmetry_equiv_pos_site_id
 _symmetry_equiv_pos_as_xyz
  1  'x, y, z'
loop_
 _atom_site_type_symbol
 _atom_site_label
 _atom_site_symmetry_multiplicity
 _atom_site_fract_x
 _atom_site_fract_y
 _atom_site_fract_z
 _atom_site_occupancy
  Gd  Gd0  1  0.00000000  0.00000000  0.00000000  1.0
  Ni  Ni1  1  0.75000000  0.25000000  0.50000000  1.0
  Ni  Ni2  1  0.25000000  0.75000000  0.50000000  1.0
