# generated using pymatgen
data_Cu
_symmetry_space_group_name_H-M   'P 1'
_cell_length_a   3.88992200
_cell_length_b   3.89960400
_cell_length_c   13.88942687
_cell_angle_alpha   81.93014647
_cell_angle_beta   90.00000000
_cell_angle_gamma   90.00000000
_symmetry_Int_Tables_number   1
_chemical_formula_structural   Cu
_chemical_formula_sum   Cu4
_cell_volume   208.60454106
_cell_formula_units_Z   4
loop_
 _symmetry_equiv_pos_site_id
 _symmetry_equiv_pos_as_xyz
  1  'x, y, z'
loop_
 _atom_site_type_symbol
 _atom_site_label
 _atom_site_symmetry_multiplicity
 _atom_site_fract_x
 _atom_site_fract_y
 _atom_site_fract_z
 _atom_site_occupancy
  Cu  Cu0  1  1.00000000  0.06155000  0.87690000  1.0
  Cu  Cu1  1  1.00000000  0.93845000  0.12310000  1.0
  Cu  Cu2  1  1.00000000  0.21265200  0.57469600  1.0
  Cu  Cu3  1  0.00000000  0.78734800  0.42530400  1.0
