# generated using pymatgen
data_TbCu4
_symmetry_space_group_name_H-M   'P 1'
_cell_length_a   5.05597046
_cell_length_b   5.05597046
_cell_length_c   5.05597046
_cell_angle_alpha   60.00000000
_cell_angle_beta   60.00000000
_cell_angle_gamma   60.00000000
_symmetry_Int_Tables_number   1
_chemical_formula_structural   TbCu4
_chemical_formula_sum   'Tb1 Cu4'
_cell_volume   91.38998074
_cell_formula_units_Z   1
loop_
 _symmetry_equiv_pos_site_id
 _symmetry_equiv_pos_as_xyz
  1  'x, y, z'
loop_
 _atom_site_type_symbol
 _atom_site_label
 _atom_site_symmetry_multiplicity
 _atom_site_fract_x
 _atom_site_fract_y
 _atom_site_fract_z
 _atom_site_occupancy
  Tb  Tb0  1  0.00000000  0.00000000  0.00000000  1.0
  Cu  Cu1  1  0.37625600  0.87123200  0.37625600  1.0
  Cu  Cu2  1  0.37625600  0.37625600  0.37625600  1.0
  Cu  Cu3  1  0.37625600  0.37625600  0.87123200  1.0
  Cu  Cu4  1  0.87123200  0.37625600  0.37625600  1.0
