# generated using pymatgen
data_Ho
_symmetry_space_group_name_H-M   'P 1'
_cell_length_a   3.46456600
_cell_length_b   10.47774600
_cell_length_c   12.16223700
_cell_angle_alpha   90.00000000
_cell_angle_beta   90.00000000
_cell_angle_gamma   90.00000000
_symmetry_Int_Tables_number   1
_chemical_formula_structural   Ho
_chemical_formula_sum   Ho8
_cell_volume   441.49945037
_cell_formula_units_Z   8
loop_
 _symmetry_equiv_pos_site_id
 _symmetry_equiv_pos_as_xyz
  1  'x, y, z'
loop_
 _atom_site_type_symbol
 _atom_site_label
 _atom_site_symmetry_multiplicity
 _atom_site_fract_x
 _atom_site_fract_y
 _atom_site_fract_z
 _atom_site_occupancy
  Ho  Ho0  1  0.25000000  0.42244900  0.89112900  1.0
  Ho  Ho1  1  0.75000000  0.57755100  0.10887100  1.0
  Ho  Ho2  1  0.25000000  0.92244900  0.60887100  1.0
  Ho  Ho3  1  0.75000000  0.07755100  0.39112900  1.0
  Ho  Ho4  1  0.75000000  0.07334700  0.88925100  1.0
  Ho  Ho5  1  0.25000000  0.92665300  0.11074900  1.0
  Ho  Ho6  1  0.75000000  0.57334700  0.61074900  1.0
  Ho  Ho7  1  0.25000000  0.42665300  0.38925100  1.0
