# generated using pymatgen
data_Dy
_symmetry_space_group_name_H-M   'P 1'
_cell_length_a   7.43154100
_cell_length_b   7.70121200
_cell_length_c   14.57446800
_cell_angle_alpha   90.00000000
_cell_angle_beta   90.00000000
_cell_angle_gamma   90.00000000
_symmetry_Int_Tables_number   1
_chemical_formula_structural   Dy
_chemical_formula_sum   Dy20
_cell_volume   834.12409765
_cell_formula_units_Z   20
loop_
 _symmetry_equiv_pos_site_id
 _symmetry_equiv_pos_as_xyz
  1  'x, y, z'
loop_
 _atom_site_type_symbol
 _atom_site_label
 _atom_site_symmetry_multiplicity
 _atom_site_fract_x
 _atom_site_fract_y
 _atom_site_fract_z
 _atom_site_occupancy
  Dy  Dy0  1  0.65040200  0.98725800  0.25000000  1.0
  Dy  Dy1  1  0.15040200  0.51274200  0.25000000  1.0
  Dy  Dy2  1  0.84959800  0.48725800  0.75000000  1.0
  Dy  Dy3  1  0.34959800  0.01274200  0.75000000  1.0
  Dy  Dy4  1  0.97277600  0.81680000  0.09830000  1.0
  Dy  Dy5  1  0.47277600  0.68320000  0.40170000  1.0
  Dy  Dy6  1  0.52722400  0.31680000  0.90170000  1.0
  Dy  Dy7  1  0.02722400  0.18320000  0.59830000  1.0
  Dy  Dy8  1  0.02722400  0.18320000  0.90170000  1.0
  Dy  Dy9  1  0.52722400  0.31680000  0.59830000  1.0
  Dy  Dy10  1  0.47277600  0.68320000  0.09830000  1.0
  Dy  Dy11  1  0.97277600  0.81680000  0.40170000  1.0
  Dy  Dy12  1  0.68104500  0.82006900  0.87694400  1.0
  Dy  Dy13  1  0.18104500  0.67993100  0.62305600  1.0
  Dy  Dy14  1  0.81895500  0.32006900  0.12305600  1.0
  Dy  Dy15  1  0.31895500  0.17993100  0.37694400  1.0
  Dy  Dy16  1  0.31895500  0.17993100  0.12305600  1.0
  Dy  Dy17  1  0.81895500  0.32006900  0.37694400  1.0
  Dy  Dy18  1  0.18104500  0.67993100  0.87694400  1.0
  Dy  Dy19  1  0.68104500  0.82006900  0.62305600  1.0
