# generated using pymatgen
data_GdCu
_symmetry_space_group_name_H-M   'P 1'
_cell_length_a   4.56587400
_cell_length_b   4.56587411
_cell_length_c   7.32679600
_cell_angle_alpha   90.00000000
_cell_angle_beta   90.00000000
_cell_angle_gamma   119.99999921
_symmetry_Int_Tables_number   1
_chemical_formula_structural   GdCu
_chemical_formula_sum   'Gd2 Cu2'
_cell_volume   132.27951392
_cell_formula_units_Z   2
loop_
 _symmetry_equiv_pos_site_id
 _symmetry_equiv_pos_as_xyz
  1  'x, y, z'
loop_
 _atom_site_type_symbol
 _atom_site_label
 _atom_site_symmetry_multiplicity
 _atom_site_fract_x
 _atom_site_fract_y
 _atom_site_fract_z
 _atom_site_occupancy
  Gd  Gd0  1  0.00000000  0.00000000  0.50031700  1.0
  Gd  Gd1  1  0.00000000  0.00000000  0.00031700  1.0
  Cu  Cu2  1  0.33333333  0.66666667  0.68746300  1.0
  Cu  Cu3  1  0.66666667  0.33333333  0.18746300  1.0
