# generated using pymatgen
data_EuMn2
_symmetry_space_group_name_H-M   'P 1'
_cell_length_a   5.83372500
_cell_length_b   7.54357600
_cell_length_c   8.68028500
_cell_angle_alpha   90.00000000
_cell_angle_beta   90.00000000
_cell_angle_gamma   90.00000000
_symmetry_Int_Tables_number   1
_chemical_formula_structural   EuMn2
_chemical_formula_sum   'Eu4 Mn8'
_cell_volume   381.99458581
_cell_formula_units_Z   4
loop_
 _symmetry_equiv_pos_site_id
 _symmetry_equiv_pos_as_xyz
  1  'x, y, z'
loop_
 _atom_site_type_symbol
 _atom_site_label
 _atom_site_symmetry_multiplicity
 _atom_site_fract_x
 _atom_site_fract_y
 _atom_site_fract_z
 _atom_site_occupancy
  Eu  Eu0  1  0.00000000  0.14062400  0.17070600  1.0
  Eu  Eu1  1  0.00000000  0.85937600  0.82929400  1.0
  Eu  Eu2  1  0.00000000  0.64062400  0.32929400  1.0
  Eu  Eu3  1  0.00000000  0.35937600  0.67070600  1.0
  Mn  Mn4  1  0.25452200  0.00000000  0.50000000  1.0
  Mn  Mn5  1  0.74547800  0.50000000  0.00000000  1.0
  Mn  Mn6  1  0.74547800  0.00000000  0.50000000  1.0
  Mn  Mn7  1  0.25452200  0.50000000  0.00000000  1.0
  Mn  Mn8  1  0.50000000  0.40729900  0.35069300  1.0
  Mn  Mn9  1  0.50000000  0.59270100  0.64930700  1.0
  Mn  Mn10  1  0.50000000  0.90729900  0.14930700  1.0
  Mn  Mn11  1  0.50000000  0.09270100  0.85069300  1.0
