# generated using pymatgen
data_Tm
_symmetry_space_group_name_H-M   'P 1'
_cell_length_a   4.22873200
_cell_length_b   9.45387183
_cell_length_c   15.20613900
_cell_angle_alpha   90.00000000
_cell_angle_beta   90.00000000
_cell_angle_gamma   102.92355305
_symmetry_Int_Tables_number   1
_chemical_formula_structural   Tm
_chemical_formula_sum   Tm8
_cell_volume   592.51061135
_cell_formula_units_Z   8
loop_
 _symmetry_equiv_pos_site_id
 _symmetry_equiv_pos_as_xyz
  1  'x, y, z'
loop_
 _atom_site_type_symbol
 _atom_site_label
 _atom_site_symmetry_multiplicity
 _atom_site_fract_x
 _atom_site_fract_y
 _atom_site_fract_z
 _atom_site_occupancy
  Tm  Tm0  1  0.96752600  0.93505200  0.26357200  1.0
  Tm  Tm1  1  0.03247400  0.06494800  0.76357200  1.0
  Tm  Tm2  1  0.16694200  0.33388400  0.30321100  1.0
  Tm  Tm3  1  0.83305800  0.66611600  0.80321100  1.0
  Tm  Tm4  1  0.82515600  0.65031200  0.44399300  1.0
  Tm  Tm5  1  0.17484400  0.34968800  0.94399300  1.0
  Tm  Tm6  1  0.01861500  0.03723000  0.49883800  1.0
  Tm  Tm7  1  0.98138500  0.96277000  0.99883800  1.0
