# generated using pymatgen
data_Yb
_symmetry_space_group_name_H-M   'P 1'
_cell_length_a   4.49334000
_cell_length_b   7.43751400
_cell_length_c   26.74316100
_cell_angle_alpha   90.00000000
_cell_angle_beta   90.00000000
_cell_angle_gamma   90.00000000
_symmetry_Int_Tables_number   1
_chemical_formula_structural   Yb
_chemical_formula_sum   Yb8
_cell_volume   893.73716299
_cell_formula_units_Z   8
loop_
 _symmetry_equiv_pos_site_id
 _symmetry_equiv_pos_as_xyz
  1  'x, y, z'
loop_
 _atom_site_type_symbol
 _atom_site_label
 _atom_site_symmetry_multiplicity
 _atom_site_fract_x
 _atom_site_fract_y
 _atom_site_fract_z
 _atom_site_occupancy
  Yb  Yb0  1  0.75000000  0.25139400  0.92294200  1.0
  Yb  Yb1  1  0.75000000  0.28298900  0.22705200  1.0
  Yb  Yb2  1  0.25000000  0.21701100  0.72705200  1.0
  Yb  Yb3  1  0.75000000  0.78298900  0.27294800  1.0
  Yb  Yb4  1  0.75000000  0.75139400  0.57705800  1.0
  Yb  Yb5  1  0.25000000  0.74860600  0.07705800  1.0
  Yb  Yb6  1  0.25000000  0.71701100  0.77294800  1.0
  Yb  Yb7  1  0.25000000  0.24860600  0.42294200  1.0
