# generated using pymatgen
data_Tb
_symmetry_space_group_name_H-M   'P 1'
_cell_length_a   3.50356000
_cell_length_b   10.54317700
_cell_length_c   12.26724100
_cell_angle_alpha   90.00000000
_cell_angle_beta   90.00000000
_cell_angle_gamma   90.00000000
_symmetry_Int_Tables_number   1
_chemical_formula_structural   Tb
_chemical_formula_sum   Tb8
_cell_volume   453.13536114
_cell_formula_units_Z   8
loop_
 _symmetry_equiv_pos_site_id
 _symmetry_equiv_pos_as_xyz
  1  'x, y, z'
loop_
 _atom_site_type_symbol
 _atom_site_label
 _atom_site_symmetry_multiplicity
 _atom_site_fract_x
 _atom_site_fract_y
 _atom_site_fract_z
 _atom_site_occupancy
  Tb  Tb0  1  0.25000000  0.42583700  0.38893400  1.0
  Tb  Tb1  1  0.75000000  0.57416300  0.61106600  1.0
  Tb  Tb2  1  0.25000000  0.92583700  0.11106600  1.0
  Tb  Tb3  1  0.75000000  0.07416300  0.88893400  1.0
  Tb  Tb4  1  0.75000000  0.07756600  0.39046400  1.0
  Tb  Tb5  1  0.25000000  0.92243400  0.60953600  1.0
  Tb  Tb6  1  0.75000000  0.57756600  0.10953600  1.0
  Tb  Tb7  1  0.25000000  0.42243400  0.89046400  1.0
