# generated using pymatgen
data_Nd3Nb2
_symmetry_space_group_name_H-M   'P 1'
_cell_length_a   11.21486600
_cell_length_b   11.21486526
_cell_length_c   17.95683700
_cell_angle_alpha   90.00000000
_cell_angle_beta   90.00000000
_cell_angle_gamma   120.00000219
_symmetry_Int_Tables_number   1
_chemical_formula_structural   Nd3Nb2
_chemical_formula_sum   'Nd12 Nb8'
_cell_volume   1955.90884912
_cell_formula_units_Z   4
loop_
 _symmetry_equiv_pos_site_id
 _symmetry_equiv_pos_as_xyz
  1  'x, y, z'
loop_
 _atom_site_type_symbol
 _atom_site_label
 _atom_site_symmetry_multiplicity
 _atom_site_fract_x
 _atom_site_fract_y
 _atom_site_fract_z
 _atom_site_occupancy
  Nd  Nd0  1  0.47139400  0.47139400  0.40430900  1.0
  Nd  Nd1  1  0.52860600  0.52860600  0.59569100  1.0
  Nd  Nd2  1  1.00000000  0.52860600  0.40430900  1.0
  Nd  Nd3  1  0.52860600  0.52860600  0.90430900  1.0
  Nd  Nd4  1  1.00000000  0.52860600  0.09569100  1.0
  Nd  Nd5  1  0.00000000  0.47139400  0.59569100  1.0
  Nd  Nd6  1  0.47139400  0.47139400  0.09569100  1.0
  Nd  Nd7  1  0.00000000  0.47139400  0.90430900  1.0
  Nd  Nd8  1  0.52860600  1.00000000  0.40430900  1.0
  Nd  Nd9  1  0.47139400  0.00000000  0.59569100  1.0
  Nd  Nd10  1  0.47139400  0.00000000  0.90430900  1.0
  Nd  Nd11  1  0.52860600  1.00000000  0.09569100  1.0
  Nb  Nb12  1  0.00000000  0.00000000  0.50000000  1.0
  Nb  Nb13  1  0.00000000  0.00000000  0.00000000  1.0
  Nb  Nb14  1  0.27243300  0.27243300  0.25000000  1.0
  Nb  Nb15  1  0.72756700  0.72756700  0.75000000  1.0
  Nb  Nb16  1  1.00000000  0.72756700  0.25000000  1.0
  Nb  Nb17  1  1.00000000  0.27243300  0.75000000  1.0
  Nb  Nb18  1  0.72756700  0.00000000  0.25000000  1.0
  Nb  Nb19  1  0.27243300  1.00000000  0.75000000  1.0
