# generated using pymatgen
data_EuNi5
_symmetry_space_group_name_H-M   'P 1'
_cell_length_a   4.89178579
_cell_length_b   4.89178579
_cell_length_c   10.29146467
_cell_angle_alpha   76.25140437
_cell_angle_beta   76.25140437
_cell_angle_gamma   60.00000282
_symmetry_Int_Tables_number   1
_chemical_formula_structural   EuNi5
_chemical_formula_sum   'Eu2 Ni10'
_cell_volume   205.08813433
_cell_formula_units_Z   2
loop_
 _symmetry_equiv_pos_site_id
 _symmetry_equiv_pos_as_xyz
  1  'x, y, z'
loop_
 _atom_site_type_symbol
 _atom_site_label
 _atom_site_symmetry_multiplicity
 _atom_site_fract_x
 _atom_site_fract_y
 _atom_site_fract_z
 _atom_site_occupancy
  Eu  Eu0  1  0.00000000  0.00000000  0.00000000  1.0
  Eu  Eu1  1  0.50000000  0.50000000  0.50000000  1.0
  Ni  Ni2  1  0.33382900  0.33382900  0.99851300  1.0
  Ni  Ni3  1  0.56691100  0.56691100  0.79687300  1.0
  Ni  Ni4  1  0.56691100  0.06930500  0.79687300  1.0
  Ni  Ni5  1  0.06930500  0.56691100  0.79687300  1.0
  Ni  Ni6  1  0.80096200  0.80096200  0.59711400  1.0
  Ni  Ni7  1  0.19903800  0.19903800  0.40288600  1.0
  Ni  Ni8  1  0.93069500  0.43308900  0.20312700  1.0
  Ni  Ni9  1  0.43308900  0.93069500  0.20312700  1.0
  Ni  Ni10  1  0.43308900  0.43308900  0.20312700  1.0
  Ni  Ni11  1  0.66617100  0.66617100  0.00148700  1.0
