# generated using pymatgen
data_Mn
_symmetry_space_group_name_H-M   'P 1'
_cell_length_a   5.28762900
_cell_length_b   7.10460900
_cell_length_c   8.24660300
_cell_angle_alpha   90.00134330
_cell_angle_beta   89.99973797
_cell_angle_gamma   89.99883422
_symmetry_Int_Tables_number   1
_chemical_formula_structural   Mn
_chemical_formula_sum   Mn4
_cell_volume   309.79631312
_cell_formula_units_Z   4
loop_
 _symmetry_equiv_pos_site_id
 _symmetry_equiv_pos_as_xyz
  1  'x, y, z'
loop_
 _atom_site_type_symbol
 _atom_site_label
 _atom_site_symmetry_multiplicity
 _atom_site_fract_x
 _atom_site_fract_y
 _atom_site_fract_z
 _atom_site_occupancy
  Mn  Mn0  1  0.23635500  0.52333500  0.25664600  1.0
  Mn  Mn1  1  0.73637200  0.47664200  0.74333800  1.0
  Mn  Mn2  1  0.73620900  0.97668400  0.75664300  1.0
  Mn  Mn3  1  0.23634000  0.02328300  0.24339700  1.0
