# generated using pymatgen
data_Fe
_symmetry_space_group_name_H-M   'P 1'
_cell_length_a   6.03016400
_cell_length_b   6.03016468
_cell_length_c   11.74142900
_cell_angle_alpha   90.00000000
_cell_angle_beta   90.00000000
_cell_angle_gamma   119.99999626
_symmetry_Int_Tables_number   1
_chemical_formula_structural   Fe
_chemical_formula_sum   Fe6
_cell_volume   369.75146250
_cell_formula_units_Z   6
loop_
 _symmetry_equiv_pos_site_id
 _symmetry_equiv_pos_as_xyz
  1  'x, y, z'
loop_
 _atom_site_type_symbol
 _atom_site_label
 _atom_site_symmetry_multiplicity
 _atom_site_fract_x
 _atom_site_fract_y
 _atom_site_fract_z
 _atom_site_occupancy
  Fe  Fe0  1  0.33397700  0.33397700  0.50117900  1.0
  Fe  Fe1  1  0.66602300  0.00000000  0.50117900  1.0
  Fe  Fe2  1  0.00000000  0.66602300  0.50117900  1.0
  Fe  Fe3  1  0.66602300  0.66602300  0.00117900  1.0
  Fe  Fe4  1  0.33397700  1.00000000  0.00117900  1.0
  Fe  Fe5  1  0.00000000  0.33397700  0.00117900  1.0
