# generated using pymatgen
data_ErRh
_symmetry_space_group_name_H-M   'P 1'
_cell_length_a   4.30203000
_cell_length_b   6.88502500
_cell_length_c   7.55363900
_cell_angle_alpha   90.00000000
_cell_angle_beta   90.00000000
_cell_angle_gamma   90.00000000
_symmetry_Int_Tables_number   1
_chemical_formula_structural   ErRh
_chemical_formula_sum   'Er4 Rh4'
_cell_volume   223.73564563
_cell_formula_units_Z   4
loop_
 _symmetry_equiv_pos_site_id
 _symmetry_equiv_pos_as_xyz
  1  'x, y, z'
loop_
 _atom_site_type_symbol
 _atom_site_label
 _atom_site_symmetry_multiplicity
 _atom_site_fract_x
 _atom_site_fract_y
 _atom_site_fract_z
 _atom_site_occupancy
  Er  Er0  1  0.25000000  0.50324400  0.69552400  1.0
  Er  Er1  1  0.75000000  0.49675600  0.30447600  1.0
  Er  Er2  1  0.25000000  0.00324400  0.80447600  1.0
  Er  Er3  1  0.75000000  0.99675600  0.19552400  1.0
  Rh  Rh4  1  0.75000000  0.84369500  0.56743200  1.0
  Rh  Rh5  1  0.25000000  0.15630500  0.43256800  1.0
  Rh  Rh6  1  0.75000000  0.34369500  0.93256800  1.0
  Rh  Rh7  1  0.25000000  0.65630500  0.06743200  1.0
