# generated using pymatgen
data_Nd3Mo2
_symmetry_space_group_name_H-M   'P 1'
_cell_length_a   11.10450400
_cell_length_b   11.10450438
_cell_length_c   17.82631400
_cell_angle_alpha   90.00000000
_cell_angle_beta   90.00000000
_cell_angle_gamma   119.99999886
_symmetry_Int_Tables_number   1
_chemical_formula_structural   Nd3Mo2
_chemical_formula_sum   'Nd12 Mo8'
_cell_volume   1903.66503558
_cell_formula_units_Z   4
loop_
 _symmetry_equiv_pos_site_id
 _symmetry_equiv_pos_as_xyz
  1  'x, y, z'
loop_
 _atom_site_type_symbol
 _atom_site_label
 _atom_site_symmetry_multiplicity
 _atom_site_fract_x
 _atom_site_fract_y
 _atom_site_fract_z
 _atom_site_occupancy
  Nd  Nd0  1  0.52970900  1.00000000  0.09513900  1.0
  Nd  Nd1  1  0.47029100  0.47029100  0.09513900  1.0
  Nd  Nd2  1  0.00000000  0.52970900  0.09513900  1.0
  Nd  Nd3  1  0.47029100  0.00000000  0.90486100  1.0
  Nd  Nd4  1  0.52970900  0.52970900  0.90486100  1.0
  Nd  Nd5  1  0.00000000  0.47029100  0.90486100  1.0
  Nd  Nd6  1  0.47029100  0.00000000  0.59513900  1.0
  Nd  Nd7  1  0.52970900  0.52970900  0.59513900  1.0
  Nd  Nd8  1  0.00000000  0.47029100  0.59513900  1.0
  Nd  Nd9  1  0.52970900  1.00000000  0.40486100  1.0
  Nd  Nd10  1  0.47029100  0.47029100  0.40486100  1.0
  Nd  Nd11  1  0.00000000  0.52970900  0.40486100  1.0
  Mo  Mo12  1  0.73143000  1.00000000  0.25000000  1.0
  Mo  Mo13  1  0.26857000  0.26857000  0.25000000  1.0
  Mo  Mo14  1  0.00000000  0.73143000  0.25000000  1.0
  Mo  Mo15  1  0.26857000  0.00000000  0.75000000  1.0
  Mo  Mo16  1  0.73143000  0.73143000  0.75000000  1.0
  Mo  Mo17  1  0.00000000  0.26857000  0.75000000  1.0
  Mo  Mo18  1  0.00000000  0.00000000  0.00000000  1.0
  Mo  Mo19  1  0.00000000  0.00000000  0.50000000  1.0
