# generated using pymatgen
data_Pr
_symmetry_space_group_name_H-M   'P 1'
_cell_length_a   3.66544600
_cell_length_b   10.79125600
_cell_length_c   12.68673400
_cell_angle_alpha   90.00000000
_cell_angle_beta   90.00000000
_cell_angle_gamma   90.00000000
_symmetry_Int_Tables_number   1
_chemical_formula_structural   Pr
_chemical_formula_sum   Pr8
_cell_volume   501.82079645
_cell_formula_units_Z   8
loop_
 _symmetry_equiv_pos_site_id
 _symmetry_equiv_pos_as_xyz
  1  'x, y, z'
loop_
 _atom_site_type_symbol
 _atom_site_label
 _atom_site_symmetry_multiplicity
 _atom_site_fract_x
 _atom_site_fract_y
 _atom_site_fract_z
 _atom_site_occupancy
  Pr  Pr0  1  0.25000000  0.41981800  0.38870300  1.0
  Pr  Pr1  1  0.75000000  0.58018200  0.61129700  1.0
  Pr  Pr2  1  0.25000000  0.91981800  0.11129700  1.0
  Pr  Pr3  1  0.75000000  0.08018200  0.88870300  1.0
  Pr  Pr4  1  0.75000000  0.07536200  0.38714800  1.0
  Pr  Pr5  1  0.25000000  0.92463800  0.61285200  1.0
  Pr  Pr6  1  0.75000000  0.57536200  0.11285200  1.0
  Pr  Pr7  1  0.25000000  0.42463800  0.88714800  1.0
