# generated using pymatgen
data_Er(Mn2Fe)2
_symmetry_space_group_name_H-M   'P 1'
_cell_length_a   5.44822200
_cell_length_b   5.46451946
_cell_length_c   9.04125900
_cell_angle_alpha   90.00000000
_cell_angle_beta   90.00000000
_cell_angle_gamma   119.90139147
_symmetry_Int_Tables_number   1
_chemical_formula_structural   Er(Mn2Fe)2
_chemical_formula_sum   'Er1 Mn4 Fe2'
_cell_volume   233.34419002
_cell_formula_units_Z   1
loop_
 _symmetry_equiv_pos_site_id
 _symmetry_equiv_pos_as_xyz
  1  'x, y, z'
loop_
 _atom_site_type_symbol
 _atom_site_label
 _atom_site_symmetry_multiplicity
 _atom_site_fract_x
 _atom_site_fract_y
 _atom_site_fract_z
 _atom_site_occupancy
  Er  Er0  1  0.50000000  1.00000000  0.00018400  1.0
  Mn  Mn1  1  0.00000000  0.00000000  0.24714300  1.0
  Mn  Mn2  1  1.00000000  0.50000000  0.75335600  1.0
  Mn  Mn3  1  0.50000000  0.50000000  0.75335600  1.0
  Mn  Mn4  1  0.00000000  0.00000000  0.75276900  1.0
  Fe  Fe5  1  1.00000000  0.50000000  0.24726000  1.0
  Fe  Fe6  1  0.50000000  0.50000000  0.24726000  1.0
