# generated using pymatgen
data_GdFe7
_symmetry_space_group_name_H-M   'P 1'
_cell_length_a   8.73368200
_cell_length_b   8.73368200
_cell_length_c   11.95667600
_cell_angle_alpha   90.00000000
_cell_angle_beta   90.00000000
_cell_angle_gamma   90.00000000
_symmetry_Int_Tables_number   1
_chemical_formula_structural   GdFe7
_chemical_formula_sum   'Gd8 Fe56'
_cell_volume   912.02178186
_cell_formula_units_Z   8
loop_
 _symmetry_equiv_pos_site_id
 _symmetry_equiv_pos_as_xyz
  1  'x, y, z'
loop_
 _atom_site_type_symbol
 _atom_site_label
 _atom_site_symmetry_multiplicity
 _atom_site_fract_x
 _atom_site_fract_y
 _atom_site_fract_z
 _atom_site_occupancy
  Gd  Gd0  1  0.23548300  0.76451700  0.50000000  1.0
  Gd  Gd1  1  0.76451700  0.23548300  0.50000000  1.0
  Gd  Gd2  1  0.26451700  0.26451700  0.00000000  1.0
  Gd  Gd3  1  0.73548300  0.73548300  0.00000000  1.0
  Gd  Gd4  1  0.64316700  0.64316700  0.50000000  1.0
  Gd  Gd5  1  0.35683300  0.35683300  0.50000000  1.0
  Gd  Gd6  1  0.85683300  0.14316700  0.00000000  1.0
  Gd  Gd7  1  0.14316700  0.85683300  0.00000000  1.0
  Fe  Fe8  1  0.00000000  0.50000000  0.50000000  1.0
  Fe  Fe9  1  0.50000000  0.00000000  0.00000000  1.0
  Fe  Fe10  1  0.50000000  0.00000000  0.50000000  1.0
  Fe  Fe11  1  0.00000000  0.50000000  0.00000000  1.0
  Fe  Fe12  1  0.50000000  0.50000000  0.11483600  1.0
  Fe  Fe13  1  0.00000000  0.00000000  0.61483600  1.0
  Fe  Fe14  1  0.50000000  0.50000000  0.88516400  1.0
  Fe  Fe15  1  0.00000000  0.00000000  0.38516400  1.0
  Fe  Fe16  1  0.18359800  0.81640200  0.25390100  1.0
  Fe  Fe17  1  0.81640200  0.18359800  0.25390100  1.0
  Fe  Fe18  1  0.31640200  0.31640200  0.75390100  1.0
  Fe  Fe19  1  0.68359800  0.68359800  0.75390100  1.0
  Fe  Fe20  1  0.81640200  0.18359800  0.74609900  1.0
  Fe  Fe21  1  0.18359800  0.81640200  0.74609900  1.0
  Fe  Fe22  1  0.68359800  0.68359800  0.24609900  1.0
  Fe  Fe23  1  0.31640200  0.31640200  0.24609900  1.0
  Fe  Fe24  1  0.40268900  0.59731100  0.29823500  1.0
  Fe  Fe25  1  0.59731100  0.40268900  0.29823500  1.0
  Fe  Fe26  1  0.09731100  0.09731100  0.79823500  1.0
  Fe  Fe27  1  0.90268900  0.90268900  0.79823500  1.0
  Fe  Fe28  1  0.59731100  0.40268900  0.70176500  1.0
  Fe  Fe29  1  0.40268900  0.59731100  0.70176500  1.0
  Fe  Fe30  1  0.90268900  0.90268900  0.20176500  1.0
  Fe  Fe31  1  0.09731100  0.09731100  0.20176500  1.0
  Fe  Fe32  1  0.14129400  0.53618800  0.32475300  1.0
  Fe  Fe33  1  0.85870600  0.46381200  0.32475300  1.0
  Fe  Fe34  1  0.35870600  0.03618800  0.82475300  1.0
  Fe  Fe35  1  0.64129400  0.96381200  0.82475300  1.0
  Fe  Fe36  1  0.85870600  0.46381200  0.67524700  1.0
  Fe  Fe37  1  0.14129400  0.53618800  0.67524700  1.0
  Fe  Fe38  1  0.64129400  0.96381200  0.17524700  1.0
  Fe  Fe39  1  0.35870600  0.03618800  0.17524700  1.0
  Fe  Fe40  1  0.53618800  0.14129400  0.32475300  1.0
  Fe  Fe41  1  0.46381200  0.85870600  0.32475300  1.0
  Fe  Fe42  1  0.03618800  0.35870600  0.82475300  1.0
  Fe  Fe43  1  0.96381200  0.64129400  0.82475300  1.0
  Fe  Fe44  1  0.46381200  0.85870600  0.67524700  1.0
  Fe  Fe45  1  0.53618800  0.14129400  0.67524700  1.0
  Fe  Fe46  1  0.96381200  0.64129400  0.17524700  1.0
  Fe  Fe47  1  0.03618800  0.35870600  0.17524700  1.0
  Fe  Fe48  1  0.93449900  0.72531700  0.37361700  1.0
  Fe  Fe49  1  0.06550100  0.27468300  0.37361700  1.0
  Fe  Fe50  1  0.56550100  0.22531700  0.87361700  1.0
  Fe  Fe51  1  0.43449900  0.77468300  0.87361700  1.0
  Fe  Fe52  1  0.06550100  0.27468300  0.62638300  1.0
  Fe  Fe53  1  0.93449900  0.72531700  0.62638300  1.0
  Fe  Fe54  1  0.43449900  0.77468300  0.12638300  1.0
  Fe  Fe55  1  0.56550100  0.22531700  0.12638300  1.0
  Fe  Fe56  1  0.72531700  0.93449900  0.37361700  1.0
  Fe  Fe57  1  0.27468300  0.06550100  0.37361700  1.0
  Fe  Fe58  1  0.22531700  0.56550100  0.87361700  1.0
  Fe  Fe59  1  0.77468300  0.43449900  0.87361700  1.0
  Fe  Fe60  1  0.27468300  0.06550100  0.62638300  1.0
  Fe  Fe61  1  0.72531700  0.93449900  0.62638300  1.0
  Fe  Fe62  1  0.77468300  0.43449900  0.12638300  1.0
  Fe  Fe63  1  0.22531700  0.56550100  0.12638300  1.0
