# generated using pymatgen
data_MnV
_symmetry_space_group_name_H-M   'P 1'
_cell_length_a   8.85031600
_cell_length_b   10.08841011
_cell_length_c   10.08841011
_cell_angle_alpha   78.90693923
_cell_angle_beta   63.98300041
_cell_angle_gamma   63.98300041
_symmetry_Int_Tables_number   1
_chemical_formula_structural   MnV
_chemical_formula_sum   'Mn8 V8'
_cell_volume   727.44283120
_cell_formula_units_Z   8
loop_
 _symmetry_equiv_pos_site_id
 _symmetry_equiv_pos_as_xyz
  1  'x, y, z'
loop_
 _atom_site_type_symbol
 _atom_site_label
 _atom_site_symmetry_multiplicity
 _atom_site_fract_x
 _atom_site_fract_y
 _atom_site_fract_z
 _atom_site_occupancy
  Mn  Mn0  1  0.33227900  0.83544300  0.50000000  1.0
  Mn  Mn1  1  0.08227800  0.00000000  0.33544400  1.0
  Mn  Mn2  1  0.41772200  0.00000000  0.66455600  1.0
  Mn  Mn3  1  0.66772100  0.16455700  0.50000000  1.0
  Mn  Mn4  1  0.91772100  0.66455700  1.00000000  1.0
  Mn  Mn5  1  0.16772200  0.50000000  0.16455600  1.0
  Mn  Mn6  1  0.83227800  0.50000000  0.83544400  1.0
  Mn  Mn7  1  0.58227900  0.33544300  0.00000000  1.0
  V  V8  1  0.87500000  0.82979300  0.67020700  1.0
  V  V9  1  0.79520700  0.82979300  0.32979300  1.0
  V  V10  1  0.95479300  0.17020700  0.67020700  1.0
  V  V11  1  0.37500000  0.17020700  0.32979300  1.0
  V  V12  1  0.37500000  0.67020700  0.82979300  1.0
  V  V13  1  0.45479300  0.67020700  0.17020700  1.0
  V  V14  1  0.29520700  0.32979300  0.82979300  1.0
  V  V15  1  0.87500000  0.32979300  0.17020700  1.0
