# generated using pymatgen
data_ErFe
_symmetry_space_group_name_H-M   'P 1'
_cell_length_a   5.29520300
_cell_length_b   5.62966400
_cell_length_c   7.68570400
_cell_angle_alpha   90.00000000
_cell_angle_beta   90.00000000
_cell_angle_gamma   90.00000000
_symmetry_Int_Tables_number   1
_chemical_formula_structural   ErFe
_chemical_formula_sum   'Er4 Fe4'
_cell_volume   229.11247869
_cell_formula_units_Z   4
loop_
 _symmetry_equiv_pos_site_id
 _symmetry_equiv_pos_as_xyz
  1  'x, y, z'
loop_
 _atom_site_type_symbol
 _atom_site_label
 _atom_site_symmetry_multiplicity
 _atom_site_fract_x
 _atom_site_fract_y
 _atom_site_fract_z
 _atom_site_occupancy
  Er  Er0  1  0.02033800  0.92887200  0.75000000  1.0
  Er  Er1  1  0.52033800  0.57112800  0.25000000  1.0
  Er  Er2  1  0.47966200  0.42887200  0.75000000  1.0
  Er  Er3  1  0.97966200  0.07112800  0.25000000  1.0
  Fe  Fe4  1  0.00000000  0.50000000  0.50000000  1.0
  Fe  Fe5  1  0.50000000  0.00000000  0.50000000  1.0
  Fe  Fe6  1  0.50000000  0.00000000  0.00000000  1.0
  Fe  Fe7  1  0.00000000  0.50000000  0.00000000  1.0
