# generated using pymatgen
data_Tb2Ni3
_symmetry_space_group_name_H-M   'P 1'
_cell_length_a   5.66047600
_cell_length_b   7.88197279
_cell_length_c   7.88197279
_cell_angle_alpha   74.85579418
_cell_angle_beta   68.95645550
_cell_angle_gamma   68.95645550
_symmetry_Int_Tables_number   1
_chemical_formula_structural   Tb2Ni3
_chemical_formula_sum   'Tb4 Ni6'
_cell_volume   302.76360175
_cell_formula_units_Z   2
loop_
 _symmetry_equiv_pos_site_id
 _symmetry_equiv_pos_as_xyz
  1  'x, y, z'
loop_
 _atom_site_type_symbol
 _atom_site_label
 _atom_site_symmetry_multiplicity
 _atom_site_fract_x
 _atom_site_fract_y
 _atom_site_fract_z
 _atom_site_occupancy
  Tb  Tb0  1  0.86882000  0.89439200  0.36796800  1.0
  Tb  Tb1  1  0.13118000  0.10560800  0.63203200  1.0
  Tb  Tb2  1  0.63118000  0.63203200  0.10560800  1.0
  Tb  Tb3  1  0.36882000  0.36796800  0.89439200  1.0
  Ni  Ni4  1  0.13423800  0.75402700  0.97749700  1.0
  Ni  Ni5  1  0.25000000  0.50000000  0.50000000  1.0
  Ni  Ni6  1  0.63423800  0.97749700  0.75402700  1.0
  Ni  Ni7  1  0.36576200  0.02250300  0.24597300  1.0
  Ni  Ni8  1  0.86576200  0.24597300  0.02250300  1.0
  Ni  Ni9  1  0.75000000  0.50000000  0.50000000  1.0
