# generated using pymatgen
data_Rh
_symmetry_space_group_name_H-M   'P 1'
_cell_length_a   8.08907000
_cell_length_b   9.41676900
_cell_length_c   10.58548300
_cell_angle_alpha   90.00000000
_cell_angle_beta   90.00000000
_cell_angle_gamma   90.00000000
_symmetry_Int_Tables_number   1
_chemical_formula_structural   Rh
_chemical_formula_sum   Rh12
_cell_volume   806.32697628
_cell_formula_units_Z   12
loop_
 _symmetry_equiv_pos_site_id
 _symmetry_equiv_pos_as_xyz
  1  'x, y, z'
loop_
 _atom_site_type_symbol
 _atom_site_label
 _atom_site_symmetry_multiplicity
 _atom_site_fract_x
 _atom_site_fract_y
 _atom_site_fract_z
 _atom_site_occupancy
  Rh  Rh0  1  0.74841400  0.40505600  0.75583800  1.0
  Rh  Rh1  1  0.25275100  0.00000000  0.00000000  1.0
  Rh  Rh2  1  0.74841400  0.59494400  0.24416200  1.0
  Rh  Rh3  1  0.74724900  0.00000000  0.00000000  1.0
  Rh  Rh4  1  0.74841400  0.90505600  0.74416200  1.0
  Rh  Rh5  1  0.74841400  0.09494400  0.25583800  1.0
  Rh  Rh6  1  0.25158600  0.40505600  0.75583800  1.0
  Rh  Rh7  1  0.25158600  0.59494400  0.24416200  1.0
  Rh  Rh8  1  0.25275100  0.50000000  0.50000000  1.0
  Rh  Rh9  1  0.74724900  0.50000000  0.50000000  1.0
  Rh  Rh10  1  0.25158600  0.90505600  0.74416200  1.0
  Rh  Rh11  1  0.25158600  0.09494400  0.25583800  1.0
