# generated using pymatgen
data_Mn3Re
_symmetry_space_group_name_H-M   'P 1'
_cell_length_a   5.35881325
_cell_length_b   5.45362974
_cell_length_c   7.83092141
_cell_angle_alpha   89.64592545
_cell_angle_beta   89.99630127
_cell_angle_gamma   90.51811152
_symmetry_Int_Tables_number   1
_chemical_formula_structural   Mn3Re
_chemical_formula_sum   'Mn6 Re2'
_cell_volume   228.84481908
_cell_formula_units_Z   2
loop_
 _symmetry_equiv_pos_site_id
 _symmetry_equiv_pos_as_xyz
  1  'x, y, z'
loop_
 _atom_site_type_symbol
 _atom_site_label
 _atom_site_symmetry_multiplicity
 _atom_site_fract_x
 _atom_site_fract_y
 _atom_site_fract_z
 _atom_site_occupancy
  Mn  Mn0  1  0.50009200  0.99997300  0.49999000  1.0
  Mn  Mn1  1  0.00001800  0.95458400  0.24429000  1.0
  Mn  Mn2  1  0.00007600  0.04541300  0.75571000  1.0
  Mn  Mn3  1  0.99981600  0.50000500  0.00001600  1.0
  Mn  Mn4  1  0.50457700  0.55105300  0.74045100  1.0
  Mn  Mn5  1  0.49526100  0.44892000  0.25955900  1.0
  Re  Re6  1  0.00000600  0.49999000  0.50001100  1.0
  Re  Re7  1  0.49998900  0.99998500  0.99995900  1.0
