# generated using pymatgen
data_Ho2Rh
_symmetry_space_group_name_H-M   'P 1'
_cell_length_a   7.85895100
_cell_length_b   8.16057400
_cell_length_c   8.16057453
_cell_angle_alpha   60.00000213
_cell_angle_beta   90.00000000
_cell_angle_gamma   90.00000000
_symmetry_Int_Tables_number   1
_chemical_formula_structural   Ho2Rh
_chemical_formula_sum   'Ho8 Rh4'
_cell_volume   453.24880222
_cell_formula_units_Z   4
loop_
 _symmetry_equiv_pos_site_id
 _symmetry_equiv_pos_as_xyz
  1  'x, y, z'
loop_
 _atom_site_type_symbol
 _atom_site_label
 _atom_site_symmetry_multiplicity
 _atom_site_fract_x
 _atom_site_fract_y
 _atom_site_fract_z
 _atom_site_occupancy
  Ho  Ho0  1  0.75000000  0.00000000  0.00000000  1.0
  Ho  Ho1  1  0.25000000  0.00000000  0.00000000  1.0
  Ho  Ho2  1  0.75000000  0.50896000  0.98208000  1.0
  Ho  Ho3  1  0.75000000  0.98208000  0.50896000  1.0
  Ho  Ho4  1  0.75000000  0.50896000  0.50896000  1.0
  Ho  Ho5  1  0.25000000  0.49104000  0.01792000  1.0
  Ho  Ho6  1  0.25000000  0.01792000  0.49104000  1.0
  Ho  Ho7  1  0.25000000  0.49104000  0.49104000  1.0
  Rh  Rh8  1  0.53332000  0.33333333  0.33333333  1.0
  Rh  Rh9  1  0.46668000  0.66666667  0.66666667  1.0
  Rh  Rh10  1  0.03332000  0.66666667  0.66666667  1.0
  Rh  Rh11  1  0.96668000  0.33333333  0.33333333  1.0
