# generated using pymatgen
data_Gd
_symmetry_space_group_name_H-M   'P 1'
_cell_length_a   3.86918000
_cell_length_b   4.04827035
_cell_length_c   10.32282904
_cell_angle_alpha   98.87677818
_cell_angle_beta   90.00000000
_cell_angle_gamma   118.54707414
_symmetry_Int_Tables_number   1
_chemical_formula_structural   Gd
_chemical_formula_sum   Gd2
_cell_volume   139.82514887
_cell_formula_units_Z   2
loop_
 _symmetry_equiv_pos_site_id
 _symmetry_equiv_pos_as_xyz
  1  'x, y, z'
loop_
 _atom_site_type_symbol
 _atom_site_label
 _atom_site_symmetry_multiplicity
 _atom_site_fract_x
 _atom_site_fract_y
 _atom_site_fract_z
 _atom_site_occupancy
  Gd  Gd0  1  0.41039600  0.82079200  0.14555900  1.0
  Gd  Gd1  1  0.58960400  0.17920800  0.85444100  1.0
