# generated using pymatgen
data_V
_symmetry_space_group_name_H-M   'P 1'
_cell_length_a   3.02393200
_cell_length_b   7.49960770
_cell_length_c   7.64531838
_cell_angle_alpha   76.30579882
_cell_angle_beta   78.59378677
_cell_angle_gamma   78.36911002
_symmetry_Int_Tables_number   1
_chemical_formula_structural   V
_chemical_formula_sum   V4
_cell_volume   162.93160450
_cell_formula_units_Z   4
loop_
 _symmetry_equiv_pos_site_id
 _symmetry_equiv_pos_as_xyz
  1  'x, y, z'
loop_
 _atom_site_type_symbol
 _atom_site_label
 _atom_site_symmetry_multiplicity
 _atom_site_fract_x
 _atom_site_fract_y
 _atom_site_fract_z
 _atom_site_occupancy
  V  V0  1  0.63715100  0.04345700  0.68224100  1.0
  V  V1  1  0.13917100  0.68428500  0.03737300  1.0
  V  V2  1  0.86082900  0.31571500  0.96262700  1.0
  V  V3  1  0.36284900  0.95654300  0.31775900  1.0
