# generated using pymatgen
data_Mn
_symmetry_space_group_name_H-M   'P 1'
_cell_length_a   6.31118361
_cell_length_b   6.38556949
_cell_length_c   6.38557337
_cell_angle_alpha   90.47624032
_cell_angle_beta   119.61516114
_cell_angle_gamma   119.61531910
_symmetry_Int_Tables_number   1
_chemical_formula_structural   Mn
_chemical_formula_sum   Mn4
_cell_volume   183.32007494
_cell_formula_units_Z   4
loop_
 _symmetry_equiv_pos_site_id
 _symmetry_equiv_pos_as_xyz
  1  'x, y, z'
loop_
 _atom_site_type_symbol
 _atom_site_label
 _atom_site_symmetry_multiplicity
 _atom_site_fract_x
 _atom_site_fract_y
 _atom_site_fract_z
 _atom_site_occupancy
  Mn  Mn0  1  0.00000800  0.98428000  0.01573800  1.0
  Mn  Mn1  1  0.49998700  0.76572000  0.23425100  1.0
  Mn  Mn2  1  0.25001000  0.37498200  0.62499600  1.0
  Mn  Mn3  1  0.74997700  0.37501200  0.62500800  1.0
