# generated using pymatgen
data_Os
_symmetry_space_group_name_H-M   'P 1'
_cell_length_a   5.42909000
_cell_length_b   6.60015130
_cell_length_c   11.66999751
_cell_angle_alpha   76.58838781
_cell_angle_beta   76.54928403
_cell_angle_gamma   65.71440104
_symmetry_Int_Tables_number   1
_chemical_formula_structural   Os
_chemical_formula_sum   Os4
_cell_volume   366.30226267
_cell_formula_units_Z   4
loop_
 _symmetry_equiv_pos_site_id
 _symmetry_equiv_pos_as_xyz
  1  'x, y, z'
loop_
 _atom_site_type_symbol
 _atom_site_label
 _atom_site_symmetry_multiplicity
 _atom_site_fract_x
 _atom_site_fract_y
 _atom_site_fract_z
 _atom_site_occupancy
  Os  Os0  1  0.35763800  0.14349500  0.14122900  1.0
  Os  Os1  1  0.56615300  0.29648300  0.57121100  1.0
  Os  Os2  1  0.43384700  0.70351700  0.42878900  1.0
  Os  Os3  1  0.64236200  0.85650500  0.85877100  1.0
