# generated using pymatgen
data_Fe
_symmetry_space_group_name_H-M   'P 1'
_cell_length_a   2.93164800
_cell_length_b   2.93164800
_cell_length_c   7.76109276
_cell_angle_alpha   100.88674387
_cell_angle_beta   100.88674387
_cell_angle_gamma   90.00000001
_symmetry_Int_Tables_number   1
_chemical_formula_structural   Fe
_chemical_formula_sum   Fe4
_cell_volume   64.27977132
_cell_formula_units_Z   4
loop_
 _symmetry_equiv_pos_site_id
 _symmetry_equiv_pos_as_xyz
  1  'x, y, z'
loop_
 _atom_site_type_symbol
 _atom_site_label
 _atom_site_symmetry_multiplicity
 _atom_site_fract_x
 _atom_site_fract_y
 _atom_site_fract_z
 _atom_site_occupancy
  Fe  Fe0  1  0.30401400  0.30401400  0.60802800  1.0
  Fe  Fe1  1  0.05401400  0.55401400  0.10802800  1.0
  Fe  Fe2  1  0.44598600  0.94598600  0.89197200  1.0
  Fe  Fe3  1  0.69598600  0.69598600  0.39197200  1.0
