# generated using pymatgen
data_NdNi
_symmetry_space_group_name_H-M   'P 1'
_cell_length_a   6.26861500
_cell_length_b   12.60610600
_cell_length_c   18.53485500
_cell_angle_alpha   90.00000000
_cell_angle_beta   90.00000000
_cell_angle_gamma   90.00000000
_symmetry_Int_Tables_number   1
_chemical_formula_structural   NdNi
_chemical_formula_sum   'Nd12 Ni12'
_cell_volume   1464.67660609
_cell_formula_units_Z   12
loop_
 _symmetry_equiv_pos_site_id
 _symmetry_equiv_pos_as_xyz
  1  'x, y, z'
loop_
 _atom_site_type_symbol
 _atom_site_label
 _atom_site_symmetry_multiplicity
 _atom_site_fract_x
 _atom_site_fract_y
 _atom_site_fract_z
 _atom_site_occupancy
  Nd  Nd0  1  0.44034600  0.69432300  0.75000000  1.0
  Nd  Nd1  1  0.97243100  0.70049600  0.91639300  1.0
  Nd  Nd2  1  0.52756900  0.70049600  0.08360700  1.0
  Nd  Nd3  1  0.52756900  0.70049600  0.41639300  1.0
  Nd  Nd4  1  0.47243100  0.29950400  0.58360700  1.0
  Nd  Nd5  1  0.47243100  0.29950400  0.91639300  1.0
  Nd  Nd6  1  0.55965400  0.30567700  0.25000000  1.0
  Nd  Nd7  1  0.05965400  0.69432300  0.25000000  1.0
  Nd  Nd8  1  0.94034600  0.30567700  0.75000000  1.0
  Nd  Nd9  1  0.02756900  0.29950400  0.41639300  1.0
  Nd  Nd10  1  0.97243100  0.70049600  0.58360700  1.0
  Nd  Nd11  1  0.02756900  0.29950400  0.08360700  1.0
  Ni  Ni12  1  0.75000000  0.10347000  0.00000000  1.0
  Ni  Ni13  1  0.25000000  0.89653000  0.50000000  1.0
  Ni  Ni14  1  0.75000000  0.10347000  0.50000000  1.0
  Ni  Ni15  1  0.25000000  0.89653000  0.00000000  1.0
  Ni  Ni16  1  0.32665300  0.10019200  0.17593700  1.0
  Ni  Ni17  1  0.67334700  0.89980800  0.82406300  1.0
  Ni  Ni18  1  0.17334700  0.10019200  0.67593700  1.0
  Ni  Ni19  1  0.32665300  0.10019200  0.32406300  1.0
  Ni  Ni20  1  0.82665300  0.89980800  0.32406300  1.0
  Ni  Ni21  1  0.17334700  0.10019200  0.82406300  1.0
  Ni  Ni22  1  0.67334700  0.89980800  0.67593700  1.0
  Ni  Ni23  1  0.82665300  0.89980800  0.17593700  1.0
