# generated using pymatgen
data_Mn
_symmetry_space_group_name_H-M   'P 1'
_cell_length_a   3.42230586
_cell_length_b   3.42334247
_cell_length_c   5.45452000
_cell_angle_alpha   89.99983067
_cell_angle_beta   89.99972967
_cell_angle_gamma   60.86974173
_symmetry_Int_Tables_number   1
_chemical_formula_structural   Mn
_chemical_formula_sum   Mn2
_cell_volume   55.82081921
_cell_formula_units_Z   2
loop_
 _symmetry_equiv_pos_site_id
 _symmetry_equiv_pos_as_xyz
  1  'x, y, z'
loop_
 _atom_site_type_symbol
 _atom_site_label
 _atom_site_symmetry_multiplicity
 _atom_site_fract_x
 _atom_site_fract_y
 _atom_site_fract_z
 _atom_site_occupancy
  Mn  Mn0  1  0.32940850  0.32972250  0.49839400  1.0
  Mn  Mn1  1  0.67059400  0.67028000  0.99839650  1.0
