# generated using pymatgen
data_YbCr
_symmetry_space_group_name_H-M   'P 1'
_cell_length_a   5.99130889
_cell_length_b   5.99130889
_cell_length_c   5.99130889
_cell_angle_alpha   105.59111656
_cell_angle_beta   105.59111657
_cell_angle_gamma   117.54589858
_symmetry_Int_Tables_number   1
_chemical_formula_structural   YbCr
_chemical_formula_sum   'Yb2 Cr2'
_cell_volume   163.05706772
_cell_formula_units_Z   2
loop_
 _symmetry_equiv_pos_site_id
 _symmetry_equiv_pos_as_xyz
  1  'x, y, z'
loop_
 _atom_site_type_symbol
 _atom_site_label
 _atom_site_symmetry_multiplicity
 _atom_site_fract_x
 _atom_site_fract_y
 _atom_site_fract_z
 _atom_site_occupancy
  Yb  Yb0  1  0.00000000  0.00000000  0.00000000  1.0
  Yb  Yb1  1  0.75000000  0.25000000  0.50000000  1.0
  Cr  Cr2  1  0.25000000  0.75000000  0.50000000  1.0
  Cr  Cr3  1  0.50000000  0.50000000  1.00000000  1.0
