# generated using pymatgen
data_Dy
_symmetry_space_group_name_H-M   'P 1'
_cell_length_a   4.40071400
_cell_length_b   4.40071400
_cell_length_c   8.54557110
_cell_angle_alpha   104.92088746
_cell_angle_beta   104.92088746
_cell_angle_gamma   89.99999999
_symmetry_Int_Tables_number   1
_chemical_formula_structural   Dy
_chemical_formula_sum   Dy2
_cell_volume   154.13377331
_cell_formula_units_Z   2
loop_
 _symmetry_equiv_pos_site_id
 _symmetry_equiv_pos_as_xyz
  1  'x, y, z'
loop_
 _atom_site_type_symbol
 _atom_site_label
 _atom_site_symmetry_multiplicity
 _atom_site_fract_x
 _atom_site_fract_y
 _atom_site_fract_z
 _atom_site_occupancy
  Dy  Dy0  1  0.66697500  0.66697500  0.33395000  1.0
  Dy  Dy1  1  0.33302500  0.33302500  0.66605000  1.0
