# generated using pymatgen
data_MnNi
_symmetry_space_group_name_H-M   'P 1'
_cell_length_a   5.54253000
_cell_length_b   5.54475223
_cell_length_c   7.82138389
_cell_angle_alpha   89.85683163
_cell_angle_beta   89.99967341
_cell_angle_gamma   89.99995848
_symmetry_Int_Tables_number   1
_chemical_formula_structural   MnNi
_chemical_formula_sum   'Mn2 Ni2'
_cell_volume   240.36567186
_cell_formula_units_Z   2
loop_
 _symmetry_equiv_pos_site_id
 _symmetry_equiv_pos_as_xyz
  1  'x, y, z'
loop_
 _atom_site_type_symbol
 _atom_site_label
 _atom_site_symmetry_multiplicity
 _atom_site_fract_x
 _atom_site_fract_y
 _atom_site_fract_z
 _atom_site_occupancy
  Mn  Mn0  1  0.50000000  0.00000000  0.50000000  1.0
  Mn  Mn1  1  0.00000000  0.50000000  0.00000000  1.0
  Ni  Ni2  1  0.00000000  0.50000000  0.50000000  1.0
  Ni  Ni3  1  0.50000000  0.00000000  0.00000000  1.0
