# generated using pymatgen
data_HoCu
_symmetry_space_group_name_H-M   'P 1'
_cell_length_a   4.52092800
_cell_length_b   4.52092757
_cell_length_c   7.21970300
_cell_angle_alpha   90.00000000
_cell_angle_beta   90.00000000
_cell_angle_gamma   120.00000315
_symmetry_Int_Tables_number   1
_chemical_formula_structural   HoCu
_chemical_formula_sum   'Ho2 Cu2'
_cell_volume   127.79241866
_cell_formula_units_Z   2
loop_
 _symmetry_equiv_pos_site_id
 _symmetry_equiv_pos_as_xyz
  1  'x, y, z'
loop_
 _atom_site_type_symbol
 _atom_site_label
 _atom_site_symmetry_multiplicity
 _atom_site_fract_x
 _atom_site_fract_y
 _atom_site_fract_z
 _atom_site_occupancy
  Ho  Ho0  1  0.00000000  0.00000000  0.00445000  1.0
  Ho  Ho1  1  0.00000000  0.00000000  0.50445000  1.0
  Cu  Cu2  1  0.33333333  0.66666667  0.68719500  1.0
  Cu  Cu3  1  0.66666667  0.33333333  0.18719500  1.0
