# generated using pymatgen
data_V
_symmetry_space_group_name_H-M   'P 1'
_cell_length_a   5.87462800
_cell_length_b   5.87462793
_cell_length_c   13.69435100
_cell_angle_alpha   90.00000000
_cell_angle_beta   90.00000000
_cell_angle_gamma   120.00000042
_symmetry_Int_Tables_number   1
_chemical_formula_structural   V
_chemical_formula_sum   V12
_cell_volume   409.29159089
_cell_formula_units_Z   12
loop_
 _symmetry_equiv_pos_site_id
 _symmetry_equiv_pos_as_xyz
  1  'x, y, z'
loop_
 _atom_site_type_symbol
 _atom_site_label
 _atom_site_symmetry_multiplicity
 _atom_site_fract_x
 _atom_site_fract_y
 _atom_site_fract_z
 _atom_site_occupancy
  V  V0  1  0.50000000  0.50000000  0.00000000  1.0
  V  V1  1  0.00000000  0.00000000  0.84982700  1.0
  V  V2  1  0.00000000  0.00000000  0.34982700  1.0
  V  V3  1  0.50000000  1.00000000  0.00000000  1.0
  V  V4  1  0.50000000  1.00000000  0.50000000  1.0
  V  V5  1  0.00000000  0.00000000  0.65017300  1.0
  V  V6  1  0.00000000  0.00000000  0.15017300  1.0
  V  V7  1  0.00000000  0.50000000  1.00000000  1.0
  V  V8  1  0.33333333  0.66666667  0.75000000  1.0
  V  V9  1  0.00000000  0.50000000  0.50000000  1.0
  V  V10  1  0.66666667  0.33333333  0.25000000  1.0
  V  V11  1  0.50000000  0.50000000  0.50000000  1.0
