# generated using pymatgen
data_Fe
_symmetry_space_group_name_H-M   'P 1'
_cell_length_a   8.28743500
_cell_length_b   8.32519400
_cell_length_c   8.32691529
_cell_angle_alpha   119.99316220
_cell_angle_beta   90.00000000
_cell_angle_gamma   90.00000000
_symmetry_Int_Tables_number   1
_chemical_formula_structural   Fe
_chemical_formula_sum   Fe34
_cell_volume   497.57573798
_cell_formula_units_Z   34
loop_
 _symmetry_equiv_pos_site_id
 _symmetry_equiv_pos_as_xyz
  1  'x, y, z'
loop_
 _atom_site_type_symbol
 _atom_site_label
 _atom_site_symmetry_multiplicity
 _atom_site_fract_x
 _atom_site_fract_y
 _atom_site_fract_z
 _atom_site_occupancy
  Fe  Fe0  1  0.60766700  0.33333333  0.66666667  1.0
  Fe  Fe1  1  0.39233300  0.66666667  0.33333333  1.0
  Fe  Fe2  1  0.10766700  0.66666667  0.33333333  1.0
  Fe  Fe3  1  0.89233300  0.33333333  0.66666667  1.0
  Fe  Fe4  1  0.50000000  0.00000000  0.50000000  1.0
  Fe  Fe5  1  0.50000000  0.50000000  0.00000000  1.0
  Fe  Fe6  1  0.50000000  0.50000000  0.50000000  1.0
  Fe  Fe7  1  1.00000000  0.00000000  0.50000000  1.0
  Fe  Fe8  1  1.00000000  0.50000000  0.00000000  1.0
  Fe  Fe9  1  0.00000000  0.50000000  0.50000000  1.0
  Fe  Fe10  1  0.75000000  0.03137300  0.36068200  1.0
  Fe  Fe11  1  0.75000000  0.32947200  0.96863500  1.0
  Fe  Fe12  1  0.75000000  0.63921800  0.67075100  1.0
  Fe  Fe13  1  0.75000000  0.03153300  0.67075100  1.0
  Fe  Fe14  1  0.75000000  0.32930900  0.36068200  1.0
  Fe  Fe15  1  0.75000000  0.63916300  0.96863500  1.0
  Fe  Fe16  1  0.25000000  0.96862700  0.63931800  1.0
  Fe  Fe17  1  0.25000000  0.67052800  0.03136500  1.0
  Fe  Fe18  1  0.25000000  0.36078200  0.32924900  1.0
  Fe  Fe19  1  0.25000000  0.96846700  0.32924900  1.0
  Fe  Fe20  1  0.25000000  0.67069100  0.63931800  1.0
  Fe  Fe21  1  0.25000000  0.36083700  0.03136500  1.0
  Fe  Fe22  1  0.48717200  0.66901000  0.83461600  1.0
  Fe  Fe23  1  0.48715300  0.16545100  0.33090200  1.0
  Fe  Fe24  1  0.48717200  0.16560600  0.83461600  1.0
  Fe  Fe25  1  0.51282800  0.33099000  0.16538400  1.0
  Fe  Fe26  1  0.51284700  0.83454900  0.66909800  1.0
  Fe  Fe27  1  0.51282800  0.83439400  0.16538400  1.0
  Fe  Fe28  1  0.98717200  0.33099000  0.16538400  1.0
  Fe  Fe29  1  0.98715300  0.83454900  0.66909800  1.0
  Fe  Fe30  1  0.98717200  0.83439400  0.16538400  1.0
  Fe  Fe31  1  0.01282800  0.66901000  0.83461600  1.0
  Fe  Fe32  1  0.01284700  0.16545100  0.33090200  1.0
  Fe  Fe33  1  0.01282800  0.16560600  0.83461600  1.0
