# generated using pymatgen
data_FeW
_symmetry_space_group_name_H-M   'P 1'
_cell_length_a   4.82030321
_cell_length_b   5.11534776
_cell_length_c   5.76949405
_cell_angle_alpha   89.99318410
_cell_angle_beta   89.98609221
_cell_angle_gamma   89.13522717
_symmetry_Int_Tables_number   1
_chemical_formula_structural   FeW
_chemical_formula_sum   'Fe2 W2'
_cell_volume   142.24524803
_cell_formula_units_Z   2
loop_
 _symmetry_equiv_pos_site_id
 _symmetry_equiv_pos_as_xyz
  1  'x, y, z'
loop_
 _atom_site_type_symbol
 _atom_site_label
 _atom_site_symmetry_multiplicity
 _atom_site_fract_x
 _atom_site_fract_y
 _atom_site_fract_z
 _atom_site_occupancy
  Fe  Fe0  1  0.49998400  0.74998700  0.33400400  1.0
  Fe  Fe1  1  0.49997800  0.25001000  0.66596500  1.0
  W  W2  1  0.00000700  0.25001500  0.17282200  1.0
  W  W3  1  0.99999300  0.75002900  0.82718500  1.0
