# generated using pymatgen
data_Ce3Rh2
_symmetry_space_group_name_H-M   'P 1'
_cell_length_a   5.58098500
_cell_length_b   8.16855100
_cell_length_c   13.37045000
_cell_angle_alpha   90.00000000
_cell_angle_beta   90.00000000
_cell_angle_gamma   90.00000000
_symmetry_Int_Tables_number   1
_chemical_formula_structural   Ce3Rh2
_chemical_formula_sum   'Ce12 Rh8'
_cell_volume   609.53957011
_cell_formula_units_Z   4
loop_
 _symmetry_equiv_pos_site_id
 _symmetry_equiv_pos_as_xyz
  1  'x, y, z'
loop_
 _atom_site_type_symbol
 _atom_site_label
 _atom_site_symmetry_multiplicity
 _atom_site_fract_x
 _atom_site_fract_y
 _atom_site_fract_z
 _atom_site_occupancy
  Ce  Ce0  1  0.63744600  0.25869200  0.25000000  1.0
  Ce  Ce1  1  0.36255400  0.74130800  0.75000000  1.0
  Ce  Ce2  1  0.36255400  0.75869200  0.25000000  1.0
  Ce  Ce3  1  0.63744600  0.24130800  0.75000000  1.0
  Ce  Ce4  1  0.16348700  0.39843900  0.09658600  1.0
  Ce  Ce5  1  0.83651300  0.60156100  0.90341400  1.0
  Ce  Ce6  1  0.83651300  0.60156100  0.59658600  1.0
  Ce  Ce7  1  0.83651300  0.89843900  0.40341400  1.0
  Ce  Ce8  1  0.16348700  0.39843900  0.40341400  1.0
  Ce  Ce9  1  0.16348700  0.10156100  0.59658600  1.0
  Ce  Ce10  1  0.16348700  0.10156100  0.90341400  1.0
  Ce  Ce11  1  0.83651300  0.89843900  0.09658600  1.0
  Rh  Rh12  1  0.37844200  0.03458900  0.09349700  1.0
  Rh  Rh13  1  0.62155800  0.96541100  0.90650300  1.0
  Rh  Rh14  1  0.62155800  0.96541100  0.59349700  1.0
  Rh  Rh15  1  0.62155800  0.53458900  0.40650300  1.0
  Rh  Rh16  1  0.37844200  0.03458900  0.40650300  1.0
  Rh  Rh17  1  0.37844200  0.46541100  0.59349700  1.0
  Rh  Rh18  1  0.37844200  0.46541100  0.90650300  1.0
  Rh  Rh19  1  0.62155800  0.53458900  0.09349700  1.0
