# generated using pymatgen
data_Gd2Ni
_symmetry_space_group_name_H-M   'P 1'
_cell_length_a   4.21545242
_cell_length_b   11.33647470
_cell_length_c   16.84167213
_cell_angle_alpha   90.00000000
_cell_angle_beta   90.00000000
_cell_angle_gamma   90.00000000
_symmetry_Int_Tables_number   1
_chemical_formula_structural   Gd2Ni
_chemical_formula_sum   'Gd16 Ni8'
_cell_volume   804.83605426
_cell_formula_units_Z   8
loop_
 _symmetry_equiv_pos_site_id
 _symmetry_equiv_pos_as_xyz
  1  'x, y, z'
loop_
 _atom_site_type_symbol
 _atom_site_label
 _atom_site_symmetry_multiplicity
 _atom_site_fract_x
 _atom_site_fract_y
 _atom_site_fract_z
 _atom_site_occupancy
  Gd  Gd0  1  0.75000000  0.80305310  0.18829058  1.0
  Gd  Gd1  1  0.25000000  0.19694690  0.81170942  1.0
  Gd  Gd2  1  0.25000000  0.69694690  0.68829058  1.0
  Gd  Gd3  1  0.75000000  0.30305310  0.31170942  1.0
  Gd  Gd4  1  0.75000000  0.95332045  0.39697366  1.0
  Gd  Gd5  1  0.25000000  0.04667955  0.60302634  1.0
  Gd  Gd6  1  0.25000000  0.54667955  0.89697366  1.0
  Gd  Gd7  1  0.75000000  0.45332045  0.10302634  1.0
  Gd  Gd8  1  0.75000000  0.94132189  0.77760617  1.0
  Gd  Gd9  1  0.25000000  0.05867811  0.22239383  1.0
  Gd  Gd10  1  0.25000000  0.55867811  0.27760617  1.0
  Gd  Gd11  1  0.75000000  0.44132189  0.72239383  1.0
  Gd  Gd12  1  0.75000000  0.81427791  0.96874829  1.0
  Gd  Gd13  1  0.25000000  0.18572209  0.03125171  1.0
  Gd  Gd14  1  0.25000000  0.68572209  0.46874829  1.0
  Gd  Gd15  1  0.75000000  0.31427791  0.53125171  1.0
  Ni  Ni16  1  0.75000000  0.56264368  0.56008134  1.0
  Ni  Ni17  1  0.25000000  0.43735632  0.43991866  1.0
  Ni  Ni18  1  0.25000000  0.93735632  0.06008134  1.0
  Ni  Ni19  1  0.75000000  0.06264368  0.93991866  1.0
  Ni  Ni20  1  0.75000000  0.71119359  0.34639685  1.0
  Ni  Ni21  1  0.25000000  0.28880641  0.65360315  1.0
  Ni  Ni22  1  0.25000000  0.78880641  0.84639685  1.0
  Ni  Ni23  1  0.75000000  0.21119359  0.15360315  1.0
