# generated using pymatgen
data_CeIr
_symmetry_space_group_name_H-M   'P 1'
_cell_length_a   4.57862600
_cell_length_b   7.27510000
_cell_length_c   7.98195400
_cell_angle_alpha   90.00000000
_cell_angle_beta   90.00000000
_cell_angle_gamma   90.00000000
_symmetry_Int_Tables_number   1
_chemical_formula_structural   CeIr
_chemical_formula_sum   'Ce4 Ir4'
_cell_volume   265.87858453
_cell_formula_units_Z   4
loop_
 _symmetry_equiv_pos_site_id
 _symmetry_equiv_pos_as_xyz
  1  'x, y, z'
loop_
 _atom_site_type_symbol
 _atom_site_label
 _atom_site_symmetry_multiplicity
 _atom_site_fract_x
 _atom_site_fract_y
 _atom_site_fract_z
 _atom_site_occupancy
  Ce  Ce0  1  0.25000000  0.01127700  0.30745600  1.0
  Ce  Ce1  1  0.25000000  0.51127700  0.19254400  1.0
  Ce  Ce2  1  0.75000000  0.98872300  0.69254400  1.0
  Ce  Ce3  1  0.75000000  0.48872300  0.80745600  1.0
  Ir  Ir4  1  0.25000000  0.28037800  0.58501800  1.0
  Ir  Ir5  1  0.25000000  0.78037800  0.91498200  1.0
  Ir  Ir6  1  0.75000000  0.71962200  0.41498200  1.0
  Ir  Ir7  1  0.75000000  0.21962200  0.08501800  1.0
