# generated using pymatgen
data_Fe
_symmetry_space_group_name_H-M   'P 1'
_cell_length_a   4.99713200
_cell_length_b   4.99713264
_cell_length_c   16.25872300
_cell_angle_alpha   90.00000000
_cell_angle_beta   90.00000000
_cell_angle_gamma   119.99999575
_symmetry_Int_Tables_number   1
_chemical_formula_structural   Fe
_chemical_formula_sum   Fe16
_cell_volume   351.60802671
_cell_formula_units_Z   16
loop_
 _symmetry_equiv_pos_site_id
 _symmetry_equiv_pos_as_xyz
  1  'x, y, z'
loop_
 _atom_site_type_symbol
 _atom_site_label
 _atom_site_symmetry_multiplicity
 _atom_site_fract_x
 _atom_site_fract_y
 _atom_site_fract_z
 _atom_site_occupancy
  Fe  Fe0  1  0.66666667  0.33333333  0.62512200  1.0
  Fe  Fe1  1  0.33333333  0.66666667  0.37487800  1.0
  Fe  Fe2  1  0.33333333  0.66666667  0.12512200  1.0
  Fe  Fe3  1  0.66666667  0.33333333  0.87487800  1.0
  Fe  Fe4  1  0.50000000  1.00000000  0.50000000  1.0
  Fe  Fe5  1  0.50000000  0.50000000  0.50000000  1.0
  Fe  Fe6  1  1.00000000  0.50000000  0.50000000  1.0
  Fe  Fe7  1  0.50000000  1.00000000  1.00000000  1.0
  Fe  Fe8  1  0.50000000  0.50000000  1.00000000  1.0
  Fe  Fe9  1  1.00000000  0.50000000  1.00000000  1.0
  Fe  Fe10  1  0.83550900  0.67101800  0.75000000  1.0
  Fe  Fe11  1  0.83550900  0.16449100  0.75000000  1.0
  Fe  Fe12  1  0.32898200  0.16449100  0.75000000  1.0
  Fe  Fe13  1  0.16449100  0.32898200  0.25000000  1.0
  Fe  Fe14  1  0.16449100  0.83550900  0.25000000  1.0
  Fe  Fe15  1  0.67101800  0.83550900  0.25000000  1.0
