# generated using pymatgen
data_Nd
_symmetry_space_group_name_H-M   'P 1'
_cell_length_a   4.51672200
_cell_length_b   4.51672200
_cell_length_c   8.71845392
_cell_angle_alpha   105.01264883
_cell_angle_beta   105.01264884
_cell_angle_gamma   89.99999999
_symmetry_Int_Tables_number   1
_chemical_formula_structural   Nd
_chemical_formula_sum   Nd2
_cell_volume   165.49928866
_cell_formula_units_Z   2
loop_
 _symmetry_equiv_pos_site_id
 _symmetry_equiv_pos_as_xyz
  1  'x, y, z'
loop_
 _atom_site_type_symbol
 _atom_site_label
 _atom_site_symmetry_multiplicity
 _atom_site_fract_x
 _atom_site_fract_y
 _atom_site_fract_z
 _atom_site_occupancy
  Nd  Nd0  1  0.66435500  0.66435500  0.32871000  1.0
  Nd  Nd1  1  0.33564500  0.33564500  0.67129000  1.0
