# generated using pymatgen
data_Yb
_symmetry_space_group_name_H-M   'P 1'
_cell_length_a   5.83974211
_cell_length_b   5.83974211
_cell_length_c   6.12568573
_cell_angle_alpha   61.53249145
_cell_angle_beta   61.53249145
_cell_angle_gamma   59.99999875
_symmetry_Int_Tables_number   1
_chemical_formula_structural   Yb
_chemical_formula_sum   Yb2
_cell_volume   151.04547959
_cell_formula_units_Z   2
loop_
 _symmetry_equiv_pos_site_id
 _symmetry_equiv_pos_as_xyz
  1  'x, y, z'
loop_
 _atom_site_type_symbol
 _atom_site_label
 _atom_site_symmetry_multiplicity
 _atom_site_fract_x
 _atom_site_fract_y
 _atom_site_fract_z
 _atom_site_occupancy
  Yb  Yb0  1  0.77356400  0.77356400  0.67930800  1.0
  Yb  Yb1  1  0.27356400  0.27356400  0.17930800  1.0
