# generated using pymatgen
data_Ce
_symmetry_space_group_name_H-M   'P 1'
_cell_length_a   4.42375360
_cell_length_b   4.42375360
_cell_length_c   17.78795700
_cell_angle_alpha   90.00000000
_cell_angle_beta   90.00000000
_cell_angle_gamma   90.89622585
_symmetry_Int_Tables_number   1
_chemical_formula_structural   Ce
_chemical_formula_sum   Ce4
_cell_volume   348.06054541
_cell_formula_units_Z   4
loop_
 _symmetry_equiv_pos_site_id
 _symmetry_equiv_pos_as_xyz
  1  'x, y, z'
loop_
 _atom_site_type_symbol
 _atom_site_label
 _atom_site_symmetry_multiplicity
 _atom_site_fract_x
 _atom_site_fract_y
 _atom_site_fract_z
 _atom_site_occupancy
  Ce  Ce0  1  0.36289100  0.36289100  0.11136100  1.0
  Ce  Ce1  1  0.63710900  0.63710900  0.88863900  1.0
  Ce  Ce2  1  0.13710900  0.13710900  0.61136100  1.0
  Ce  Ce3  1  0.86289100  0.86289100  0.38863900  1.0
