# generated using pymatgen
data_Nd3Ti2
_symmetry_space_group_name_H-M   'P 1'
_cell_length_a   11.16686200
_cell_length_b   11.16686272
_cell_length_c   17.98429000
_cell_angle_alpha   90.00000000
_cell_angle_beta   90.00000000
_cell_angle_gamma   119.99999788
_symmetry_Int_Tables_number   1
_chemical_formula_structural   Nd3Ti2
_chemical_formula_sum   'Nd12 Ti8'
_cell_volume   1942.16563086
_cell_formula_units_Z   4
loop_
 _symmetry_equiv_pos_site_id
 _symmetry_equiv_pos_as_xyz
  1  'x, y, z'
loop_
 _atom_site_type_symbol
 _atom_site_label
 _atom_site_symmetry_multiplicity
 _atom_site_fract_x
 _atom_site_fract_y
 _atom_site_fract_z
 _atom_site_occupancy
  Nd  Nd0  1  0.47024900  0.47024900  0.40382300  1.0
  Nd  Nd1  1  0.52975100  0.52975100  0.59617700  1.0
  Nd  Nd2  1  1.00000000  0.52975100  0.40382300  1.0
  Nd  Nd3  1  0.52975100  0.52975100  0.90382300  1.0
  Nd  Nd4  1  1.00000000  0.52975100  0.09617700  1.0
  Nd  Nd5  1  1.00000000  0.47024900  0.59617700  1.0
  Nd  Nd6  1  0.47024900  0.47024900  0.09617700  1.0
  Nd  Nd7  1  1.00000000  0.47024900  0.90382300  1.0
  Nd  Nd8  1  0.52975100  0.00000000  0.40382300  1.0
  Nd  Nd9  1  0.47024900  1.00000000  0.59617700  1.0
  Nd  Nd10  1  0.47024900  1.00000000  0.90382300  1.0
  Nd  Nd11  1  0.52975100  0.00000000  0.09617700  1.0
  Ti  Ti12  1  0.00000000  0.00000000  0.50000000  1.0
  Ti  Ti13  1  0.00000000  0.00000000  0.00000000  1.0
  Ti  Ti14  1  0.27108600  0.27108600  0.25000000  1.0
  Ti  Ti15  1  0.72891400  0.72891400  0.75000000  1.0
  Ti  Ti16  1  1.00000000  0.72891400  0.25000000  1.0
  Ti  Ti17  1  1.00000000  0.27108600  0.75000000  1.0
  Ti  Ti18  1  0.72891400  0.00000000  0.25000000  1.0
  Ti  Ti19  1  0.27108600  0.00000000  0.75000000  1.0
