# generated using pymatgen
data_TbMn2
_symmetry_space_group_name_H-M   'P 1'
_cell_length_a   5.53596400
_cell_length_b   5.58221400
_cell_length_c   7.82362800
_cell_angle_alpha   90.00000000
_cell_angle_beta   90.00000000
_cell_angle_gamma   90.00000000
_symmetry_Int_Tables_number   1
_chemical_formula_structural   TbMn2
_chemical_formula_sum   'Tb2 Mn4'
_cell_volume   241.77307337
_cell_formula_units_Z   2
loop_
 _symmetry_equiv_pos_site_id
 _symmetry_equiv_pos_as_xyz
  1  'x, y, z'
loop_
 _atom_site_type_symbol
 _atom_site_label
 _atom_site_symmetry_multiplicity
 _atom_site_fract_x
 _atom_site_fract_y
 _atom_site_fract_z
 _atom_site_occupancy
  Tb  Tb0  1  0.75000000  0.25891000  0.00000000  1.0
  Tb  Tb1  1  0.25000000  0.74109000  0.00000000  1.0
  Mn  Mn2  1  0.75000000  0.75107100  0.75772000  1.0
  Mn  Mn3  1  0.25000000  0.24892900  0.24228000  1.0
  Mn  Mn4  1  0.75000000  0.75107100  0.24228000  1.0
  Mn  Mn5  1  0.25000000  0.24892900  0.75772000  1.0
