# generated using pymatgen
data_HoRu
_symmetry_space_group_name_H-M   'P 1'
_cell_length_a   5.80520900
_cell_length_b   5.86291100
_cell_length_c   8.23254730
_cell_angle_alpha   90.00000000
_cell_angle_beta   89.63364069
_cell_angle_gamma   90.00000000
_symmetry_Int_Tables_number   1
_chemical_formula_structural   HoRu
_chemical_formula_sum   'Ho2 Ru2'
_cell_volume   280.19250737
_cell_formula_units_Z   2
loop_
 _symmetry_equiv_pos_site_id
 _symmetry_equiv_pos_as_xyz
  1  'x, y, z'
loop_
 _atom_site_type_symbol
 _atom_site_label
 _atom_site_symmetry_multiplicity
 _atom_site_fract_x
 _atom_site_fract_y
 _atom_site_fract_z
 _atom_site_occupancy
  Ho  Ho0  1  0.00000000  0.50000000  0.50000000  1.0
  Ho  Ho1  1  0.50000000  1.00000000  0.00000000  1.0
  Ru  Ru2  1  0.50000000  0.00000000  0.50000000  1.0
  Ru  Ru3  1  1.00000000  0.50000000  0.00000000  1.0
