# generated using pymatgen
data_Ce3Ni2
_symmetry_space_group_name_H-M   'P 1'
_cell_length_a   4.59159600
_cell_length_b   4.61834200
_cell_length_c   13.84644986
_cell_angle_alpha   99.60006677
_cell_angle_beta   90.00000000
_cell_angle_gamma   90.00000000
_symmetry_Int_Tables_number   1
_chemical_formula_structural   Ce3Ni2
_chemical_formula_sum   'Ce3 Ni2'
_cell_volume   289.50980739
_cell_formula_units_Z   1
loop_
 _symmetry_equiv_pos_site_id
 _symmetry_equiv_pos_as_xyz
  1  'x, y, z'
loop_
 _atom_site_type_symbol
 _atom_site_label
 _atom_site_symmetry_multiplicity
 _atom_site_fract_x
 _atom_site_fract_y
 _atom_site_fract_z
 _atom_site_occupancy
  Ce  Ce0  1  0.50000000  0.50000000  0.00000000  1.0
  Ce  Ce1  1  0.00000000  0.18517500  0.37035000  1.0
  Ce  Ce2  1  0.00000000  0.81482500  0.62965000  1.0
  Ni  Ni3  1  0.50000000  0.37246400  0.74492800  1.0
  Ni  Ni4  1  0.50000000  0.62753600  0.25507200  1.0
