# generated using pymatgen
data_MnW
_symmetry_space_group_name_H-M   'P 1'
_cell_length_a   5.63942000
_cell_length_b   5.71115400
_cell_length_c   8.10666325
_cell_angle_alpha   90.00000000
_cell_angle_beta   89.82864948
_cell_angle_gamma   90.00000000
_symmetry_Int_Tables_number   1
_chemical_formula_structural   MnW
_chemical_formula_sum   'Mn2 W2'
_cell_volume   261.09496799
_cell_formula_units_Z   2
loop_
 _symmetry_equiv_pos_site_id
 _symmetry_equiv_pos_as_xyz
  1  'x, y, z'
loop_
 _atom_site_type_symbol
 _atom_site_label
 _atom_site_symmetry_multiplicity
 _atom_site_fract_x
 _atom_site_fract_y
 _atom_site_fract_z
 _atom_site_occupancy
  Mn  Mn0  1  0.25021200  0.25039400  0.26237600  1.0
  Mn  Mn1  1  0.74978800  0.75039400  0.73762400  1.0
  W  W2  1  0.25408700  0.24402400  0.73912200  1.0
  W  W3  1  0.74591300  0.74402400  0.26087800  1.0
