# generated using pymatgen
data_DyMn
_symmetry_space_group_name_H-M   'P 1'
_cell_length_a   4.14871600
_cell_length_b   6.97320600
_cell_length_c   6.97320553
_cell_angle_alpha   120.00000223
_cell_angle_beta   90.00000000
_cell_angle_gamma   90.00000000
_symmetry_Int_Tables_number   1
_chemical_formula_structural   DyMn
_chemical_formula_sum   'Dy3 Mn3'
_cell_volume   174.70659087
_cell_formula_units_Z   3
loop_
 _symmetry_equiv_pos_site_id
 _symmetry_equiv_pos_as_xyz
  1  'x, y, z'
loop_
 _atom_site_type_symbol
 _atom_site_label
 _atom_site_symmetry_multiplicity
 _atom_site_fract_x
 _atom_site_fract_y
 _atom_site_fract_z
 _atom_site_occupancy
  Dy  Dy0  1  0.50000000  0.99621900  0.41812800  1.0
  Dy  Dy1  1  0.50000000  0.42190900  0.00378100  1.0
  Dy  Dy2  1  0.50000000  0.58187200  0.57809100  1.0
  Mn  Mn3  1  0.00000000  0.98838400  0.75864700  1.0
  Mn  Mn4  1  1.00000000  0.77026300  0.01161600  1.0
  Mn  Mn5  1  0.00000000  0.24135300  0.22973700  1.0
