# generated using pymatgen
data_Ho2Ni
_symmetry_space_group_name_H-M   'P 1'
_cell_length_a   3.98809000
_cell_length_b   4.05492500
_cell_length_c   10.90216715
_cell_angle_alpha   90.00000000
_cell_angle_beta   100.53892887
_cell_angle_gamma   90.00000000
_symmetry_Int_Tables_number   1
_chemical_formula_structural   Ho2Ni
_chemical_formula_sum   'Ho2 Ni1'
_cell_volume   173.32928388
_cell_formula_units_Z   1
loop_
 _symmetry_equiv_pos_site_id
 _symmetry_equiv_pos_as_xyz
  1  'x, y, z'
loop_
 _atom_site_type_symbol
 _atom_site_label
 _atom_site_symmetry_multiplicity
 _atom_site_fract_x
 _atom_site_fract_y
 _atom_site_fract_z
 _atom_site_occupancy
  Ho  Ho0  1  0.66115500  0.00000000  0.32231000  1.0
  Ho  Ho1  1  0.99738500  0.00000000  0.99477000  1.0
  Ni  Ni2  1  0.21849300  0.50000000  0.43698600  1.0
