# generated using pymatgen
data_Eu
_symmetry_space_group_name_H-M   'P 1'
_cell_length_a   5.79457100
_cell_length_b   5.90763900
_cell_length_c   8.24415900
_cell_angle_alpha   90.00038857
_cell_angle_beta   89.99936791
_cell_angle_gamma   89.99937342
_symmetry_Int_Tables_number   1
_chemical_formula_structural   Eu
_chemical_formula_sum   Eu4
_cell_volume   282.21597691
_cell_formula_units_Z   4
loop_
 _symmetry_equiv_pos_site_id
 _symmetry_equiv_pos_as_xyz
  1  'x, y, z'
loop_
 _atom_site_type_symbol
 _atom_site_label
 _atom_site_symmetry_multiplicity
 _atom_site_fract_x
 _atom_site_fract_y
 _atom_site_fract_z
 _atom_site_occupancy
  Eu  Eu0  1  0.01255600  0.54444200  0.25000300  1.0
  Eu  Eu1  1  0.51253900  0.95555100  0.75000200  1.0
  Eu  Eu2  1  0.48746000  0.04445800  0.24999900  1.0
  Eu  Eu3  1  0.98744100  0.45555000  0.74999500  1.0
