# generated using pymatgen
data_Nb
_symmetry_space_group_name_H-M   'P 1'
_cell_length_a   4.07861800
_cell_length_b   12.62277100
_cell_length_c   12.62277100
_cell_angle_alpha   89.94651497
_cell_angle_beta   90.00000000
_cell_angle_gamma   90.00000000
_symmetry_Int_Tables_number   1
_chemical_formula_structural   Nb
_chemical_formula_sum   Nb10
_cell_volume   649.86365548
_cell_formula_units_Z   10
loop_
 _symmetry_equiv_pos_site_id
 _symmetry_equiv_pos_as_xyz
  1  'x, y, z'
loop_
 _atom_site_type_symbol
 _atom_site_label
 _atom_site_symmetry_multiplicity
 _atom_site_fract_x
 _atom_site_fract_y
 _atom_site_fract_z
 _atom_site_occupancy
  Nb  Nb0  1  0.53845800  0.21213800  0.42352600  1.0
  Nb  Nb1  1  0.53845800  0.78786100  0.57647400  1.0
  Nb  Nb2  1  0.53833500  0.28939500  0.92157600  1.0
  Nb  Nb3  1  0.53833500  0.71060500  0.07842400  1.0
  Nb  Nb4  1  0.53833500  0.07842400  0.71060500  1.0
  Nb  Nb5  1  0.53833500  0.92157600  0.28939500  1.0
  Nb  Nb6  1  0.53845800  0.57647400  0.78786100  1.0
  Nb  Nb7  1  0.53845800  0.42352600  0.21213900  1.0
  Nb  Nb8  1  0.52274700  0.50000000  0.50000000  1.0
  Nb  Nb9  1  0.52552600  0.00000000  0.00000000  1.0
