# generated using pymatgen
data_Er5Rh4
_symmetry_space_group_name_H-M   'P 1'
_cell_length_a   4.28393900
_cell_length_b   13.05950000
_cell_length_c   13.05950000
_cell_angle_alpha   90.00000000
_cell_angle_beta   90.00000000
_cell_angle_gamma   90.00000000
_symmetry_Int_Tables_number   1
_chemical_formula_structural   Er5Rh4
_chemical_formula_sum   'Er10 Rh8'
_cell_volume   730.62811085
_cell_formula_units_Z   2
loop_
 _symmetry_equiv_pos_site_id
 _symmetry_equiv_pos_as_xyz
  1  'x, y, z'
loop_
 _atom_site_type_symbol
 _atom_site_label
 _atom_site_symmetry_multiplicity
 _atom_site_fract_x
 _atom_site_fract_y
 _atom_site_fract_z
 _atom_site_occupancy
  Er  Er0  1  1.00000000  0.50000000  0.50000000  1.0
  Er  Er1  1  0.00000000  0.00000000  0.00000000  1.0
  Er  Er2  1  0.50000000  0.67541600  0.17541600  1.0
  Er  Er3  1  0.50000000  0.32458400  0.82458400  1.0
  Er  Er4  1  0.50000000  0.17541600  0.32458400  1.0
  Er  Er5  1  0.50000000  0.82458400  0.67541600  1.0
  Er  Er6  1  0.50000000  0.88692500  0.38692500  1.0
  Er  Er7  1  0.50000000  0.11307500  0.61307500  1.0
  Er  Er8  1  0.50000000  0.38692500  0.11307500  1.0
  Er  Er9  1  0.50000000  0.61307500  0.88692500  1.0
  Rh  Rh10  1  1.00000000  0.74618500  0.52166800  1.0
  Rh  Rh11  1  1.00000000  0.25381500  0.47833200  1.0
  Rh  Rh12  1  0.00000000  0.24618500  0.97833200  1.0
  Rh  Rh13  1  0.00000000  0.75381500  0.02166800  1.0
  Rh  Rh14  1  0.00000000  0.47833200  0.74618500  1.0
  Rh  Rh15  1  0.00000000  0.52166800  0.25381500  1.0
  Rh  Rh16  1  1.00000000  0.02166800  0.24618500  1.0
  Rh  Rh17  1  0.00000000  0.97833200  0.75381500  1.0
