# generated using pymatgen
data_HoIr
_symmetry_space_group_name_H-M   'P 1'
_cell_length_a   4.23134700
_cell_length_b   6.83890500
_cell_length_c   7.43566500
_cell_angle_alpha   90.00000000
_cell_angle_beta   90.00000000
_cell_angle_gamma   90.00000000
_symmetry_Int_Tables_number   1
_chemical_formula_structural   HoIr
_chemical_formula_sum   'Ho4 Ir4'
_cell_volume   215.17163908
_cell_formula_units_Z   4
loop_
 _symmetry_equiv_pos_site_id
 _symmetry_equiv_pos_as_xyz
  1  'x, y, z'
loop_
 _atom_site_type_symbol
 _atom_site_label
 _atom_site_symmetry_multiplicity
 _atom_site_fract_x
 _atom_site_fract_y
 _atom_site_fract_z
 _atom_site_occupancy
  Ho  Ho0  1  0.75000000  0.49908000  0.81203400  1.0
  Ho  Ho1  1  0.25000000  0.00092000  0.31203400  1.0
  Ho  Ho2  1  0.75000000  0.99908000  0.68796600  1.0
  Ho  Ho3  1  0.25000000  0.50092000  0.18796600  1.0
  Ir  Ir4  1  0.25000000  0.65751800  0.56776200  1.0
  Ir  Ir5  1  0.25000000  0.15751800  0.93223800  1.0
  Ir  Ir6  1  0.75000000  0.84248200  0.06776200  1.0
  Ir  Ir7  1  0.75000000  0.34248200  0.43223800  1.0
