# generated using pymatgen
data_NbCo2
_symmetry_space_group_name_H-M   'P 1'
_cell_length_a   5.22473514
_cell_length_b   5.22563195
_cell_length_c   14.29855963
_cell_angle_alpha   89.97759452
_cell_angle_beta   89.98816001
_cell_angle_gamma   119.99279959
_symmetry_Int_Tables_number   1
_chemical_formula_structural   NbCo2
_chemical_formula_sum   'Nb4 Co8'
_cell_volume   338.10955678
_cell_formula_units_Z   4
loop_
 _symmetry_equiv_pos_site_id
 _symmetry_equiv_pos_as_xyz
  1  'x, y, z'
loop_
 _atom_site_type_symbol
 _atom_site_label
 _atom_site_symmetry_multiplicity
 _atom_site_fract_x
 _atom_site_fract_y
 _atom_site_fract_z
 _atom_site_occupancy
  Nb  Nb0  1  0.99947500  0.00028700  0.64177500  1.0
  Nb  Nb1  1  0.00005200  0.99997400  0.85841900  1.0
  Nb  Nb2  1  0.00035400  0.99946400  0.35860400  1.0
  Nb  Nb3  1  0.99975100  0.99989500  0.14139000  1.0
  Co  Co4  1  0.33333333  0.66677333  0.01519800  1.0
  Co  Co5  1  0.33311000  0.66677600  0.51390700  1.0
  Co  Co6  1  0.66666667  0.33340767  0.98542600  1.0
  Co  Co7  1  0.33299700  0.66645700  0.30520800  1.0
  Co  Co8  1  0.66613000  0.33470700  0.48792000  1.0
  Co  Co9  1  0.66666667  0.33363267  0.69404300  1.0
  Co  Co10  1  0.33326800  0.66668700  0.80614200  1.0
  Co  Co11  1  0.66635600  0.33302267  0.19481300  1.0
