# generated using pymatgen
data_VCo
_symmetry_space_group_name_H-M   'P 1'
_cell_length_a   8.51086800
_cell_length_b   9.91269432
_cell_length_c   9.91269432
_cell_angle_alpha   79.38019697
_cell_angle_beta   64.57740369
_cell_angle_gamma   64.57740369
_symmetry_Int_Tables_number   1
_chemical_formula_structural   VCo
_chemical_formula_sum   'V8 Co8'
_cell_volume   682.16981690
_cell_formula_units_Z   8
loop_
 _symmetry_equiv_pos_site_id
 _symmetry_equiv_pos_as_xyz
  1  'x, y, z'
loop_
 _atom_site_type_symbol
 _atom_site_label
 _atom_site_symmetry_multiplicity
 _atom_site_fract_x
 _atom_site_fract_y
 _atom_site_fract_z
 _atom_site_occupancy
  V  V0  1  0.87500000  0.32933800  0.17066200  1.0
  V  V1  1  0.79566200  0.82933800  0.32933800  1.0
  V  V2  1  0.37500000  0.17066200  0.32933800  1.0
  V  V3  1  0.87500000  0.82933800  0.67066200  1.0
  V  V4  1  0.95433800  0.17066200  0.67066200  1.0
  V  V5  1  0.45433800  0.67066200  0.17066200  1.0
  V  V6  1  0.37500000  0.67066200  0.82933800  1.0
  V  V7  1  0.29566200  0.32933800  0.82933800  1.0
  Co  Co8  1  0.08151200  1.00000000  0.33697600  1.0
  Co  Co9  1  0.91848800  0.66302400  1.00000000  1.0
  Co  Co10  1  0.33151200  0.83697600  0.50000000  1.0
  Co  Co11  1  0.58151200  0.33697600  1.00000000  1.0
  Co  Co12  1  0.16848800  0.50000000  0.16302400  1.0
  Co  Co13  1  0.41848800  1.00000000  0.66302400  1.0
  Co  Co14  1  0.66848800  0.16302400  0.50000000  1.0
  Co  Co15  1  0.83151200  0.50000000  0.83697600  1.0
