# generated using pymatgen
data_MnNb2
_symmetry_space_group_name_H-M   'P 1'
_cell_length_a   5.14827700
_cell_length_b   5.89677400
_cell_length_c   14.65101600
_cell_angle_alpha   90.00000000
_cell_angle_beta   90.00000000
_cell_angle_gamma   90.00000000
_symmetry_Int_Tables_number   1
_chemical_formula_structural   MnNb2
_chemical_formula_sum   'Mn4 Nb8'
_cell_volume   444.77885425
_cell_formula_units_Z   4
loop_
 _symmetry_equiv_pos_site_id
 _symmetry_equiv_pos_as_xyz
  1  'x, y, z'
loop_
 _atom_site_type_symbol
 _atom_site_label
 _atom_site_symmetry_multiplicity
 _atom_site_fract_x
 _atom_site_fract_y
 _atom_site_fract_z
 _atom_site_occupancy
  Mn  Mn0  1  0.75000000  0.67643900  0.00000000  1.0
  Mn  Mn1  1  0.25000000  0.82356100  0.50000000  1.0
  Mn  Mn2  1  0.25000000  0.32356100  0.00000000  1.0
  Mn  Mn3  1  0.75000000  0.17643900  0.50000000  1.0
  Nb  Nb4  1  0.24096700  0.81857600  0.83779700  1.0
  Nb  Nb5  1  0.74096700  0.68142400  0.66220300  1.0
  Nb  Nb6  1  0.25903300  0.81857600  0.16220300  1.0
  Nb  Nb7  1  0.75903300  0.68142400  0.33779700  1.0
  Nb  Nb8  1  0.24096700  0.31857600  0.66220300  1.0
  Nb  Nb9  1  0.74096700  0.18142400  0.83779700  1.0
  Nb  Nb10  1  0.25903300  0.31857600  0.33779700  1.0
  Nb  Nb11  1  0.75903300  0.18142400  0.16220300  1.0
