# generated using pymatgen
data_Er3V2
_symmetry_space_group_name_H-M   'P 1'
_cell_length_a   10.99316800
_cell_length_b   10.99316735
_cell_length_c   17.55920800
_cell_angle_alpha   90.00000000
_cell_angle_beta   90.00000000
_cell_angle_gamma   120.00000197
_symmetry_Int_Tables_number   1
_chemical_formula_structural   Er3V2
_chemical_formula_sum   'Er12 V8'
_cell_volume   1837.72807856
_cell_formula_units_Z   4
loop_
 _symmetry_equiv_pos_site_id
 _symmetry_equiv_pos_as_xyz
  1  'x, y, z'
loop_
 _atom_site_type_symbol
 _atom_site_label
 _atom_site_symmetry_multiplicity
 _atom_site_fract_x
 _atom_site_fract_y
 _atom_site_fract_z
 _atom_site_occupancy
  Er  Er0  1  0.46954900  0.46954900  0.40423000  1.0
  Er  Er1  1  0.53045100  0.53045100  0.59577000  1.0
  Er  Er2  1  1.00000000  0.53045100  0.40423000  1.0
  Er  Er3  1  0.53045100  0.53045100  0.90423000  1.0
  Er  Er4  1  1.00000000  0.53045100  0.09577000  1.0
  Er  Er5  1  1.00000000  0.46954900  0.59577000  1.0
  Er  Er6  1  0.46954900  0.46954900  0.09577000  1.0
  Er  Er7  1  1.00000000  0.46954900  0.90423000  1.0
  Er  Er8  1  0.53045100  0.00000000  0.40423000  1.0
  Er  Er9  1  0.46954900  0.00000000  0.59577000  1.0
  Er  Er10  1  0.46954900  0.00000000  0.90423000  1.0
  Er  Er11  1  0.53045100  0.00000000  0.09577000  1.0
  V  V12  1  0.00000000  0.00000000  0.50000000  1.0
  V  V13  1  0.00000000  0.00000000  0.00000000  1.0
  V  V14  1  0.26984500  0.26984500  0.25000000  1.0
  V  V15  1  0.73015500  0.73015500  0.75000000  1.0
  V  V16  1  0.00000000  0.73015500  0.25000000  1.0
  V  V17  1  0.00000000  0.26984500  0.75000000  1.0
  V  V18  1  0.73015500  0.00000000  0.25000000  1.0
  V  V19  1  0.26984500  1.00000000  0.75000000  1.0
