# generated using pymatgen
data_Fe
_symmetry_space_group_name_H-M   'P 1'
_cell_length_a   4.70366700
_cell_length_b   8.70129900
_cell_length_c   9.09817529
_cell_angle_alpha   90.00000000
_cell_angle_beta   96.45214420
_cell_angle_gamma   90.00000000
_symmetry_Int_Tables_number   1
_chemical_formula_structural   Fe
_chemical_formula_sum   Fe4
_cell_volume   370.01166588
_cell_formula_units_Z   4
loop_
 _symmetry_equiv_pos_site_id
 _symmetry_equiv_pos_as_xyz
  1  'x, y, z'
loop_
 _atom_site_type_symbol
 _atom_site_label
 _atom_site_symmetry_multiplicity
 _atom_site_fract_x
 _atom_site_fract_y
 _atom_site_fract_z
 _atom_site_occupancy
  Fe  Fe0  1  0.03353400  0.06857600  0.33378300  1.0
  Fe  Fe1  1  0.03353400  0.43142400  0.33378300  1.0
  Fe  Fe2  1  0.96646600  0.93142400  0.66621700  1.0
  Fe  Fe3  1  0.96646600  0.56857600  0.66621700  1.0
