# generated using pymatgen
data_Ti
_symmetry_space_group_name_H-M   'P 1'
_cell_length_a   3.89890600
_cell_length_b   3.89890600
_cell_length_c   20.55167809
_cell_angle_alpha   95.44304026
_cell_angle_beta   95.44304025
_cell_angle_gamma   90.00000003
_symmetry_Int_Tables_number   1
_chemical_formula_structural   Ti
_chemical_formula_sum   Ti4
_cell_volume   309.59189649
_cell_formula_units_Z   4
loop_
 _symmetry_equiv_pos_site_id
 _symmetry_equiv_pos_as_xyz
  1  'x, y, z'
loop_
 _atom_site_type_symbol
 _atom_site_label
 _atom_site_symmetry_multiplicity
 _atom_site_fract_x
 _atom_site_fract_y
 _atom_site_fract_z
 _atom_site_occupancy
  Ti  Ti0  1  0.65280500  0.65280500  0.30561000  1.0
  Ti  Ti1  1  0.34719500  0.34719500  0.69439000  1.0
  Ti  Ti2  1  0.55129400  0.55129400  0.10258800  1.0
  Ti  Ti3  1  0.44870600  0.44870600  0.89741200  1.0
