# generated using pymatgen
data_Dy2Fe17
_symmetry_space_group_name_H-M   'P 1'
_cell_length_a   8.25443000
_cell_length_b   8.49131600
_cell_length_c   8.50291786
_cell_angle_alpha   119.95487439
_cell_angle_beta   90.00000000
_cell_angle_gamma   90.00000000
_symmetry_Int_Tables_number   1
_chemical_formula_structural   Dy2Fe17
_chemical_formula_sum   'Dy4 Fe34'
_cell_volume   516.36643970
_cell_formula_units_Z   2
loop_
 _symmetry_equiv_pos_site_id
 _symmetry_equiv_pos_as_xyz
  1  'x, y, z'
loop_
 _atom_site_type_symbol
 _atom_site_label
 _atom_site_symmetry_multiplicity
 _atom_site_fract_x
 _atom_site_fract_y
 _atom_site_fract_z
 _atom_site_occupancy
  Dy  Dy0  1  0.75000000  0.99998800  0.99997600  1.0
  Dy  Dy1  1  0.25000000  0.00001200  0.00002400  1.0
  Dy  Dy2  1  0.25000000  0.33323100  0.66646200  1.0
  Dy  Dy3  1  0.75000000  0.66676900  0.33353800  1.0
  Fe  Fe4  1  0.60677200  0.33333333  0.66666667  1.0
  Fe  Fe5  1  0.39322800  0.66666667  0.33333333  1.0
  Fe  Fe6  1  0.10677200  0.66666667  0.33333333  1.0
  Fe  Fe7  1  0.89322800  0.33333333  0.66666667  1.0
  Fe  Fe8  1  0.50000000  0.00000000  0.50000000  1.0
  Fe  Fe9  1  0.50000000  0.50000000  0.00000000  1.0
  Fe  Fe10  1  0.50000000  0.50000000  0.50000000  1.0
  Fe  Fe11  1  1.00000000  0.00000000  0.50000000  1.0
  Fe  Fe12  1  1.00000000  0.50000000  0.00000000  1.0
  Fe  Fe13  1  0.00000000  0.50000000  0.50000000  1.0
  Fe  Fe14  1  0.75000000  0.03807900  0.36755700  1.0
  Fe  Fe15  1  0.75000000  0.32929200  0.96183000  1.0
  Fe  Fe16  1  0.75000000  0.63263800  0.67057000  1.0
  Fe  Fe17  1  0.75000000  0.03793200  0.67057000  1.0
  Fe  Fe18  1  0.75000000  0.32947800  0.36755700  1.0
  Fe  Fe19  1  0.75000000  0.63253800  0.96183000  1.0
  Fe  Fe20  1  0.25000000  0.96192100  0.63244300  1.0
  Fe  Fe21  1  0.25000000  0.67070800  0.03817000  1.0
  Fe  Fe22  1  0.25000000  0.36736200  0.32943000  1.0
  Fe  Fe23  1  0.25000000  0.96206800  0.32943000  1.0
  Fe  Fe24  1  0.25000000  0.67052200  0.63244300  1.0
  Fe  Fe25  1  0.25000000  0.36746200  0.03817000  1.0
  Fe  Fe26  1  0.48599000  0.66785500  0.83388600  1.0
  Fe  Fe27  1  0.48590400  0.16612000  0.33224000  1.0
  Fe  Fe28  1  0.48599000  0.16603100  0.83388600  1.0
  Fe  Fe29  1  0.51401000  0.33214500  0.16611400  1.0
  Fe  Fe30  1  0.51409600  0.83388000  0.66776000  1.0
  Fe  Fe31  1  0.51401000  0.83396900  0.16611400  1.0
  Fe  Fe32  1  0.98599000  0.33214500  0.16611400  1.0
  Fe  Fe33  1  0.98590400  0.83388000  0.66776000  1.0
  Fe  Fe34  1  0.98599000  0.83396900  0.16611400  1.0
  Fe  Fe35  1  0.01401000  0.66785500  0.83388600  1.0
  Fe  Fe36  1  0.01409600  0.16612000  0.33224000  1.0
  Fe  Fe37  1  0.01401000  0.16603100  0.83388600  1.0
