# generated using pymatgen
data_Tm
_symmetry_space_group_name_H-M   'P 1'
_cell_length_a   7.50055400
_cell_length_b   7.62611600
_cell_length_c   14.49340000
_cell_angle_alpha   90.00000000
_cell_angle_beta   90.00000000
_cell_angle_gamma   90.00000000
_symmetry_Int_Tables_number   1
_chemical_formula_structural   Tm
_chemical_formula_sum   Tm20
_cell_volume   829.02385496
_cell_formula_units_Z   20
loop_
 _symmetry_equiv_pos_site_id
 _symmetry_equiv_pos_as_xyz
  1  'x, y, z'
loop_
 _atom_site_type_symbol
 _atom_site_label
 _atom_site_symmetry_multiplicity
 _atom_site_fract_x
 _atom_site_fract_y
 _atom_site_fract_z
 _atom_site_occupancy
  Tm  Tm0  1  0.63163100  0.16143800  0.61973300  1.0
  Tm  Tm1  1  0.13163100  0.33856200  0.88026700  1.0
  Tm  Tm2  1  0.36836900  0.83856200  0.11973300  1.0
  Tm  Tm3  1  0.86836900  0.66143800  0.38026700  1.0
  Tm  Tm4  1  0.36836900  0.83856200  0.38026700  1.0
  Tm  Tm5  1  0.86836900  0.66143800  0.11973300  1.0
  Tm  Tm6  1  0.63163100  0.16143800  0.88026700  1.0
  Tm  Tm7  1  0.13163100  0.33856200  0.61973300  1.0
  Tm  Tm8  1  0.48261400  0.68246600  0.59639900  1.0
  Tm  Tm9  1  0.98261400  0.81753400  0.90360100  1.0
  Tm  Tm10  1  0.51738600  0.31753400  0.09639900  1.0
  Tm  Tm11  1  0.01738600  0.18246600  0.40360100  1.0
  Tm  Tm12  1  0.51738600  0.31753400  0.40360100  1.0
  Tm  Tm13  1  0.01738600  0.18246600  0.09639900  1.0
  Tm  Tm14  1  0.48261400  0.68246600  0.90360100  1.0
  Tm  Tm15  1  0.98261400  0.81753400  0.59639900  1.0
  Tm  Tm16  1  0.79478000  0.50068400  0.75000000  1.0
  Tm  Tm17  1  0.29478000  0.99931600  0.75000000  1.0
  Tm  Tm18  1  0.20522000  0.49931600  0.25000000  1.0
  Tm  Tm19  1  0.70522000  0.00068400  0.25000000  1.0
