# generated using pymatgen
data_Mn
_symmetry_space_group_name_H-M   'P 1'
_cell_length_a   2.89540000
_cell_length_b   5.06852694
_cell_length_c   7.67311560
_cell_angle_alpha   72.07609232
_cell_angle_beta   79.38454013
_cell_angle_gamma   89.75342013
_symmetry_Int_Tables_number   1
_chemical_formula_structural   Mn
_chemical_formula_sum   Mn2
_cell_volume   105.14190253
_cell_formula_units_Z   2
loop_
 _symmetry_equiv_pos_site_id
 _symmetry_equiv_pos_as_xyz
  1  'x, y, z'
loop_
 _atom_site_type_symbol
 _atom_site_label
 _atom_site_symmetry_multiplicity
 _atom_site_fract_x
 _atom_site_fract_y
 _atom_site_fract_z
 _atom_site_occupancy
  Mn  Mn0  1  0.83409600  0.99336800  0.82449900  1.0
  Mn  Mn1  1  0.16590400  0.00663200  0.17550100  1.0
