# generated using pymatgen
data_TbCo
_symmetry_space_group_name_H-M   'P 1'
_cell_length_a   3.99297600
_cell_length_b   4.04566600
_cell_length_c   8.34714432
_cell_angle_alpha   75.97540842
_cell_angle_beta   90.00000000
_cell_angle_gamma   90.00000000
_symmetry_Int_Tables_number   1
_chemical_formula_structural   TbCo
_chemical_formula_sum   'Tb2 Co2'
_cell_volume   130.82244115
_cell_formula_units_Z   2
loop_
 _symmetry_equiv_pos_site_id
 _symmetry_equiv_pos_as_xyz
  1  'x, y, z'
loop_
 _atom_site_type_symbol
 _atom_site_label
 _atom_site_symmetry_multiplicity
 _atom_site_fract_x
 _atom_site_fract_y
 _atom_site_fract_z
 _atom_site_occupancy
  Tb  Tb0  1  0.75000000  0.10723200  0.78553600  1.0
  Tb  Tb1  1  0.25000000  0.89276800  0.21446400  1.0
  Co  Co2  1  0.25000000  0.67983800  0.64032400  1.0
  Co  Co3  1  0.75000000  0.32016200  0.35967600  1.0
