# generated using pymatgen
data_Mn
_symmetry_space_group_name_H-M   'P 1'
_cell_length_a   4.44867400
_cell_length_b   6.70221628
_cell_length_c   6.70221628
_cell_angle_alpha   83.67633295
_cell_angle_beta   70.61702690
_cell_angle_gamma   70.61702689
_symmetry_Int_Tables_number   1
_chemical_formula_structural   Mn
_chemical_formula_sum   Mn12
_cell_volume   177.82252153
_cell_formula_units_Z   12
loop_
 _symmetry_equiv_pos_site_id
 _symmetry_equiv_pos_as_xyz
  1  'x, y, z'
loop_
 _atom_site_type_symbol
 _atom_site_label
 _atom_site_symmetry_multiplicity
 _atom_site_fract_x
 _atom_site_fract_y
 _atom_site_fract_z
 _atom_site_occupancy
  Mn  Mn0  1  0.34241000  0.61483400  0.67403000  1.0
  Mn  Mn1  1  0.04275600  0.32597000  0.61483400  1.0
  Mn  Mn2  1  0.98356000  0.67403000  0.38516600  1.0
  Mn  Mn3  1  0.63127400  0.38516600  0.32597000  1.0
  Mn  Mn4  1  0.92958000  0.60723200  0.04687200  1.0
  Mn  Mn5  1  0.46318800  0.95312800  0.60723200  1.0
  Mn  Mn6  1  0.02354800  0.04687200  0.39276800  1.0
  Mn  Mn7  1  0.58368400  0.39276800  0.95312800  1.0
  Mn  Mn8  1  0.13530100  0.18921700  0.97712600  1.0
  Mn  Mn9  1  0.67548200  0.02287400  0.18921800  1.0
  Mn  Mn10  1  0.88757300  0.97712600  0.81078300  1.0
  Mn  Mn11  1  0.30164300  0.81078300  0.02287500  1.0
