# generated using pymatgen
data_UHg
_symmetry_space_group_name_H-M   'P 1'
_cell_length_a   4.22733600
_cell_length_b   27.26753200
_cell_length_c   27.26753251
_cell_angle_alpha   119.99999938
_cell_angle_beta   90.00000000
_cell_angle_gamma   90.00000000
_symmetry_Int_Tables_number   1
_chemical_formula_structural   UHg
_chemical_formula_sum   'U9 Hg9'
_cell_volume   2722.00597114
_cell_formula_units_Z   9
loop_
 _symmetry_equiv_pos_site_id
 _symmetry_equiv_pos_as_xyz
  1  'x, y, z'
loop_
 _atom_site_type_symbol
 _atom_site_label
 _atom_site_symmetry_multiplicity
 _atom_site_fract_x
 _atom_site_fract_y
 _atom_site_fract_z
 _atom_site_occupancy
  U  U0  1  1.00000000  0.26764000  0.46776500  1.0
  U  U1  1  1.00000000  0.20012500  0.73236000  1.0
  U  U2  1  0.00000000  0.53223500  0.79987500  1.0
  U  U3  1  1.00000000  0.18895600  0.15872100  1.0
  U  U4  1  0.00000000  0.96976500  0.81104500  1.0
  U  U5  1  1.00000000  0.84128000  0.03023600  1.0
  U  U6  1  0.00000000  0.61038300  0.46938200  1.0
  U  U7  1  1.00000000  0.85899900  0.38961800  1.0
  U  U8  1  1.00000000  0.53061900  0.14100200  1.0
  Hg  Hg9  1  1.00000000  0.55576700  0.65898800  1.0
  Hg  Hg10  1  1.00000000  0.10322100  0.44423300  1.0
  Hg  Hg11  1  1.00000000  0.34101200  0.89677900  1.0
  Hg  Hg12  1  1.00000000  0.43778900  0.34384400  1.0
  Hg  Hg13  1  1.00000000  0.90605500  0.56221100  1.0
  Hg  Hg14  1  0.00000000  0.65615600  0.09394500  1.0
  Hg  Hg15  1  1.00000000  0.96439600  0.20633800  1.0
  Hg  Hg16  1  1.00000000  0.24194200  0.03560400  1.0
  Hg  Hg17  1  1.00000000  0.79366200  0.75805800  1.0
