# generated using pymatgen
data_Mn
_symmetry_space_group_name_H-M   'P 1'
_cell_length_a   5.13142130
_cell_length_b   5.13142080
_cell_length_c   8.09408200
_cell_angle_alpha   90.00000000
_cell_angle_beta   90.00000000
_cell_angle_gamma   120.00000064
_symmetry_Int_Tables_number   1
_chemical_formula_structural   Mn
_chemical_formula_sum   Mn6
_cell_volume   184.57527813
_cell_formula_units_Z   6
loop_
 _symmetry_equiv_pos_site_id
 _symmetry_equiv_pos_as_xyz
  1  'x, y, z'
loop_
 _atom_site_type_symbol
 _atom_site_label
 _atom_site_symmetry_multiplicity
 _atom_site_fract_x
 _atom_site_fract_y
 _atom_site_fract_z
 _atom_site_occupancy
  Mn  Mn0  1  0.50000000  0.00000000  0.74938100  1.0
  Mn  Mn1  1  0.00000000  0.50000000  0.74938100  1.0
  Mn  Mn2  1  0.50000000  0.50000000  0.25061900  1.0
  Mn  Mn3  1  0.50000000  0.00000000  0.25061900  1.0
  Mn  Mn4  1  0.00000000  0.50000000  0.25061900  1.0
  Mn  Mn5  1  0.50000000  0.50000000  0.74938100  1.0
