# generated using pymatgen
data_Mn
_symmetry_space_group_name_H-M   'P 1'
_cell_length_a   6.32047780
_cell_length_b   6.32328295
_cell_length_c   6.32829101
_cell_angle_alpha   90.63944787
_cell_angle_beta   90.51476612
_cell_angle_gamma   90.53028354
_symmetry_Int_Tables_number   1
_chemical_formula_structural   Mn
_chemical_formula_sum   Mn6
_cell_volume   252.88052394
_cell_formula_units_Z   6
loop_
 _symmetry_equiv_pos_site_id
 _symmetry_equiv_pos_as_xyz
  1  'x, y, z'
loop_
 _atom_site_type_symbol
 _atom_site_label
 _atom_site_symmetry_multiplicity
 _atom_site_fract_x
 _atom_site_fract_y
 _atom_site_fract_z
 _atom_site_occupancy
  Mn  Mn0  1  0.94936100  0.43779600  0.25164200  1.0
  Mn  Mn1  1  0.74889000  0.05118400  0.56223000  1.0
  Mn  Mn2  1  0.56175600  0.74796300  0.05079100  1.0
  Mn  Mn3  1  0.25166400  0.94899700  0.43790000  1.0
  Mn  Mn4  1  0.43778600  0.25198200  0.94894100  1.0
  Mn  Mn5  1  0.05048300  0.56205000  0.74848600  1.0
