# generated using pymatgen
data_Ho2Ni
_symmetry_space_group_name_H-M   'P 1'
_cell_length_a   3.78935861
_cell_length_b   5.78512231
_cell_length_c   6.65924088
_cell_angle_alpha   115.74508680
_cell_angle_beta   106.53007817
_cell_angle_gamma   90.00000046
_symmetry_Int_Tables_number   1
_chemical_formula_structural   Ho2Ni
_chemical_formula_sum   'Ho2 Ni1'
_cell_volume   124.76003807
_cell_formula_units_Z   1
loop_
 _symmetry_equiv_pos_site_id
 _symmetry_equiv_pos_as_xyz
  1  'x, y, z'
loop_
 _atom_site_type_symbol
 _atom_site_label
 _atom_site_symmetry_multiplicity
 _atom_site_fract_x
 _atom_site_fract_y
 _atom_site_fract_z
 _atom_site_occupancy
  Ho  Ho0  1  0.70339700  0.20339800  0.40679500  1.0
  Ho  Ho1  1  0.29660200  0.79660300  0.59320500  1.0
  Ni  Ni2  1  0.00000000  0.00000000  0.00000000  1.0
