# generated using pymatgen
data_Sm
_symmetry_space_group_name_H-M   'P 1'
_cell_length_a   12.04128744
_cell_length_b   12.04128744
_cell_length_c   12.04128744
_cell_angle_alpha   60.00000000
_cell_angle_beta   60.00000000
_cell_angle_gamma   60.00000000
_symmetry_Int_Tables_number   1
_chemical_formula_structural   Sm
_chemical_formula_sum   Sm6
_cell_volume   1234.53604067
_cell_formula_units_Z   6
loop_
 _symmetry_equiv_pos_site_id
 _symmetry_equiv_pos_as_xyz
  1  'x, y, z'
loop_
 _atom_site_type_symbol
 _atom_site_label
 _atom_site_symmetry_multiplicity
 _atom_site_fract_x
 _atom_site_fract_y
 _atom_site_fract_z
 _atom_site_occupancy
  Sm  Sm0  1  0.50000000  0.50000000  0.00000000  1.0
  Sm  Sm1  1  0.00000000  0.50000000  0.50000000  1.0
  Sm  Sm2  1  0.00000000  0.50000000  0.00000000  1.0
  Sm  Sm3  1  0.00000000  1.00000000  0.50000000  1.0
  Sm  Sm4  1  0.50000000  1.00000000  0.00000000  1.0
  Sm  Sm5  1  0.50000000  1.00000000  0.50000000  1.0
