# generated using pymatgen
data_TbCu2Ir
_symmetry_space_group_name_H-M   'P 1'
_cell_length_a   3.86602750
_cell_length_b   3.86602750
_cell_length_c   11.85174600
_cell_angle_alpha   90.00000000
_cell_angle_beta   90.00000000
_cell_angle_gamma   89.64310782
_symmetry_Int_Tables_number   1
_chemical_formula_structural   TbCu2Ir
_chemical_formula_sum   'Tb1 Cu2 Ir1'
_cell_volume   177.13475784
_cell_formula_units_Z   1
loop_
 _symmetry_equiv_pos_site_id
 _symmetry_equiv_pos_as_xyz
  1  'x, y, z'
loop_
 _atom_site_type_symbol
 _atom_site_label
 _atom_site_symmetry_multiplicity
 _atom_site_fract_x
 _atom_site_fract_y
 _atom_site_fract_z
 _atom_site_occupancy
  Tb  Tb0  1  0.50085500  0.49914500  0.50000000  1.0
  Cu  Cu1  1  0.00091700  0.99908300  0.35920600  1.0
  Cu  Cu2  1  0.00091700  0.99908300  0.64079400  1.0
  Ir  Ir3  1  0.01873500  0.98126500  0.00000000  1.0
