# generated using pymatgen
data_MnTl
_symmetry_space_group_name_H-M   'P 1'
_cell_length_a   5.55162146
_cell_length_b   5.64092022
_cell_length_c   7.83613276
_cell_angle_alpha   88.49659013
_cell_angle_beta   87.99068527
_cell_angle_gamma   88.57343192
_symmetry_Int_Tables_number   1
_chemical_formula_structural   MnTl
_chemical_formula_sum   'Mn4 Tl4'
_cell_volume   245.09240331
_cell_formula_units_Z   4
loop_
 _symmetry_equiv_pos_site_id
 _symmetry_equiv_pos_as_xyz
  1  'x, y, z'
loop_
 _atom_site_type_symbol
 _atom_site_label
 _atom_site_symmetry_multiplicity
 _atom_site_fract_x
 _atom_site_fract_y
 _atom_site_fract_z
 _atom_site_occupancy
  Mn  Mn0  1  0.99991500  0.49989600  0.49982200  1.0
  Mn  Mn1  1  0.50023100  0.00020600  0.50014400  1.0
  Mn  Mn2  1  0.50021800  0.99983900  0.00027000  1.0
  Mn  Mn3  1  0.99981600  0.49975100  0.99978400  1.0
  Tl  Tl4  1  0.97027400  0.99173400  0.74759200  1.0
  Tl  Tl5  1  0.52558300  0.49386800  0.25287900  1.0
  Tl  Tl6  1  0.47405300  0.50632400  0.74712600  1.0
  Tl  Tl7  1  0.02997900  0.00831500  0.25246100  1.0
