# generated using pymatgen
data_Ce
_symmetry_space_group_name_H-M   'P 1'
_cell_length_a   12.06293622
_cell_length_b   12.06293622
_cell_length_c   12.06293622
_cell_angle_alpha   60.00000000
_cell_angle_beta   60.00000000
_cell_angle_gamma   60.00000000
_symmetry_Int_Tables_number   1
_chemical_formula_structural   Ce
_chemical_formula_sum   Ce6
_cell_volume   1241.20665921
_cell_formula_units_Z   6
loop_
 _symmetry_equiv_pos_site_id
 _symmetry_equiv_pos_as_xyz
  1  'x, y, z'
loop_
 _atom_site_type_symbol
 _atom_site_label
 _atom_site_symmetry_multiplicity
 _atom_site_fract_x
 _atom_site_fract_y
 _atom_site_fract_z
 _atom_site_occupancy
  Ce  Ce0  1  0.50000000  0.00000000  0.00000000  1.0
  Ce  Ce1  1  1.00000000  1.00000000  0.50000000  1.0
  Ce  Ce2  1  0.50000000  1.00000000  0.50000000  1.0
  Ce  Ce3  1  0.50000000  0.50000000  0.00000000  1.0
  Ce  Ce4  1  1.00000000  0.50000000  0.00000000  1.0
  Ce  Ce5  1  1.00000000  0.50000000  0.50000000  1.0
