# generated using pymatgen
data_Fe
_symmetry_space_group_name_H-M   'P 1'
_cell_length_a   9.96717999
_cell_length_b   10.05380020
_cell_length_c   19.33791760
_cell_angle_alpha   104.94267151
_cell_angle_beta   104.80881840
_cell_angle_gamma   90.46644421
_symmetry_Int_Tables_number   1
_chemical_formula_structural   Fe
_chemical_formula_sum   Fe8
_cell_volume   1804.40024120
_cell_formula_units_Z   8
loop_
 _symmetry_equiv_pos_site_id
 _symmetry_equiv_pos_as_xyz
  1  'x, y, z'
loop_
 _atom_site_type_symbol
 _atom_site_label
 _atom_site_symmetry_multiplicity
 _atom_site_fract_x
 _atom_site_fract_y
 _atom_site_fract_z
 _atom_site_occupancy
  Fe  Fe0  1  0.70905400  0.04397400  0.33854300  1.0
  Fe  Fe1  1  0.62948900  0.29456900  0.33854300  1.0
  Fe  Fe2  1  0.54643700  0.45971000  0.83661600  1.0
  Fe  Fe3  1  0.29017900  0.37690600  0.83661600  1.0
  Fe  Fe4  1  0.78644500  0.96077000  0.66238000  1.0
  Fe  Fe5  1  0.87593500  0.70161000  0.66238000  1.0
  Fe  Fe6  1  0.95268900  0.53913900  0.16276100  1.0
  Fe  Fe7  1  0.21007200  0.62362200  0.16276100  1.0
