# generated using pymatgen
data_Fe
_symmetry_space_group_name_H-M   'P 1'
_cell_length_a   8.05363200
_cell_length_b   8.62457700
_cell_length_c   12.26096800
_cell_angle_alpha   90.00000000
_cell_angle_beta   90.00000000
_cell_angle_gamma   90.00000000
_symmetry_Int_Tables_number   1
_chemical_formula_structural   Fe
_chemical_formula_sum   Fe16
_cell_volume   851.63665226
_cell_formula_units_Z   16
loop_
 _symmetry_equiv_pos_site_id
 _symmetry_equiv_pos_as_xyz
  1  'x, y, z'
loop_
 _atom_site_type_symbol
 _atom_site_label
 _atom_site_symmetry_multiplicity
 _atom_site_fract_x
 _atom_site_fract_y
 _atom_site_fract_z
 _atom_site_occupancy
  Fe  Fe0  1  0.50629900  0.50160400  0.12828000  1.0
  Fe  Fe1  1  0.99370100  0.00160400  0.37172000  1.0
  Fe  Fe2  1  0.49370100  0.49839600  0.62828000  1.0
  Fe  Fe3  1  0.00629900  0.99839600  0.87172000  1.0
  Fe  Fe4  1  0.49370100  0.49839600  0.87172000  1.0
  Fe  Fe5  1  0.00629900  0.99839600  0.62828000  1.0
  Fe  Fe6  1  0.50629900  0.50160400  0.37172000  1.0
  Fe  Fe7  1  0.99370100  0.00160400  0.12828000  1.0
  Fe  Fe8  1  0.35150400  0.83917300  0.25000000  1.0
  Fe  Fe9  1  0.14849600  0.33917300  0.25000000  1.0
  Fe  Fe10  1  0.64849600  0.16082700  0.75000000  1.0
  Fe  Fe11  1  0.85150400  0.66082700  0.75000000  1.0
  Fe  Fe12  1  0.85824600  0.67393900  0.25000000  1.0
  Fe  Fe13  1  0.64175400  0.17393900  0.25000000  1.0
  Fe  Fe14  1  0.14175400  0.32606100  0.75000000  1.0
  Fe  Fe15  1  0.35824600  0.82606100  0.75000000  1.0
