# generated using pymatgen
data_V2Fe
_symmetry_space_group_name_H-M   'P 1'
_cell_length_a   3.19962600
_cell_length_b   5.83325016
_cell_length_c   6.29322759
_cell_angle_alpha   114.97222090
_cell_angle_beta   104.72688833
_cell_angle_gamma   90.00000000
_symmetry_Int_Tables_number   1
_chemical_formula_structural   V2Fe
_chemical_formula_sum   'V2 Fe1'
_cell_volume   102.20490839
_cell_formula_units_Z   1
loop_
 _symmetry_equiv_pos_site_id
 _symmetry_equiv_pos_as_xyz
  1  'x, y, z'
loop_
 _atom_site_type_symbol
 _atom_site_label
 _atom_site_symmetry_multiplicity
 _atom_site_fract_x
 _atom_site_fract_y
 _atom_site_fract_z
 _atom_site_occupancy
  V  V0  1  0.25960900  0.31375300  0.51921800  1.0
  V  V1  1  0.74039100  0.68624700  0.48078200  1.0
  Fe  Fe2  1  0.00000000  0.00000000  0.00000000  1.0
