# generated using pymatgen
data_Th
_symmetry_space_group_name_H-M   'P 1'
_cell_length_a   8.84615300
_cell_length_b   9.06636200
_cell_length_c   9.06636130
_cell_angle_alpha   120.00000257
_cell_angle_beta   90.00000000
_cell_angle_gamma   90.00000000
_symmetry_Int_Tables_number   1
_chemical_formula_structural   Th
_chemical_formula_sum   Th4
_cell_volume   629.72530378
_cell_formula_units_Z   4
loop_
 _symmetry_equiv_pos_site_id
 _symmetry_equiv_pos_as_xyz
  1  'x, y, z'
loop_
 _atom_site_type_symbol
 _atom_site_label
 _atom_site_symmetry_multiplicity
 _atom_site_fract_x
 _atom_site_fract_y
 _atom_site_fract_z
 _atom_site_occupancy
  Th  Th0  1  0.75000000  0.00000000  0.00000000  1.0
  Th  Th1  1  0.25000000  0.00000000  0.00000000  1.0
  Th  Th2  1  0.25000000  0.66666667  0.33333333  1.0
  Th  Th3  1  0.75000000  0.33333333  0.66666667  1.0
