# generated using pymatgen
data_Mn
_symmetry_space_group_name_H-M   'P 1'
_cell_length_a   6.27327100
_cell_length_b   6.32900307
_cell_length_c   15.34161541
_cell_angle_alpha   90.24839593
_cell_angle_beta   90.99724673
_cell_angle_gamma   118.86183247
_symmetry_Int_Tables_number   1
_chemical_formula_structural   Mn
_chemical_formula_sum   Mn12
_cell_volume   533.31874609
_cell_formula_units_Z   12
loop_
 _symmetry_equiv_pos_site_id
 _symmetry_equiv_pos_as_xyz
  1  'x, y, z'
loop_
 _atom_site_type_symbol
 _atom_site_label
 _atom_site_symmetry_multiplicity
 _atom_site_fract_x
 _atom_site_fract_y
 _atom_site_fract_z
 _atom_site_occupancy
  Mn  Mn0  1  0.82288400  0.65591400  0.16288500  1.0
  Mn  Mn1  1  0.51130700  0.51980900  0.38025600  1.0
  Mn  Mn2  1  0.49890100  0.49881600  0.00121800  1.0
  Mn  Mn3  1  0.33706700  0.66472700  0.16426800  1.0
  Mn  Mn4  1  0.50028700  0.00057500  0.49946900  1.0
  Mn  Mn5  1  0.18997800  0.86402200  0.71126200  1.0
  Mn  Mn6  1  0.00026500  0.99984200  0.49966800  1.0
  Mn  Mn7  1  0.17410400  0.34264600  0.83651300  1.0
  Mn  Mn8  1  0.81136400  0.13710500  0.28940000  1.0
  Mn  Mn9  1  0.66666667  0.33812000  0.83538700  1.0
  Mn  Mn10  1  0.48868300  0.47990300  0.62000900  1.0
  Mn  Mn11  1  0.14580000  0.80907900  0.95922500  1.0
