# generated using pymatgen
data_DyMn2
_symmetry_space_group_name_H-M   'P 1'
_cell_length_a   5.78798900
_cell_length_b   7.35505700
_cell_length_c   8.56931800
_cell_angle_alpha   90.00000000
_cell_angle_beta   90.00000000
_cell_angle_gamma   90.00000000
_symmetry_Int_Tables_number   1
_chemical_formula_structural   DyMn2
_chemical_formula_sum   'Dy4 Mn8'
_cell_volume   364.80434240
_cell_formula_units_Z   4
loop_
 _symmetry_equiv_pos_site_id
 _symmetry_equiv_pos_as_xyz
  1  'x, y, z'
loop_
 _atom_site_type_symbol
 _atom_site_label
 _atom_site_symmetry_multiplicity
 _atom_site_fract_x
 _atom_site_fract_y
 _atom_site_fract_z
 _atom_site_occupancy
  Dy  Dy0  1  0.00000000  0.36233800  0.67056200  1.0
  Dy  Dy1  1  0.00000000  0.63766200  0.32943800  1.0
  Dy  Dy2  1  0.00000000  0.86233800  0.82943800  1.0
  Dy  Dy3  1  0.00000000  0.13766200  0.17056200  1.0
  Mn  Mn4  1  0.50000000  0.08854500  0.84846200  1.0
  Mn  Mn5  1  0.50000000  0.91145500  0.15153800  1.0
  Mn  Mn6  1  0.50000000  0.58854500  0.65153800  1.0
  Mn  Mn7  1  0.50000000  0.41145500  0.34846200  1.0
  Mn  Mn8  1  0.25359800  0.50000000  0.00000000  1.0
  Mn  Mn9  1  0.74640200  0.00000000  0.50000000  1.0
  Mn  Mn10  1  0.74640200  0.50000000  0.00000000  1.0
  Mn  Mn11  1  0.25359800  0.00000000  0.50000000  1.0
