# generated using pymatgen
data_NdTiCr
_symmetry_space_group_name_H-M   'P 1'
_cell_length_a   5.93942700
_cell_length_b   7.46442700
_cell_length_c   8.85481500
_cell_angle_alpha   90.00000000
_cell_angle_beta   90.00000000
_cell_angle_gamma   90.00000000
_symmetry_Int_Tables_number   1
_chemical_formula_structural   NdTiCr
_chemical_formula_sum   'Nd4 Ti4 Cr4'
_cell_volume   392.57308071
_cell_formula_units_Z   4
loop_
 _symmetry_equiv_pos_site_id
 _symmetry_equiv_pos_as_xyz
  1  'x, y, z'
loop_
 _atom_site_type_symbol
 _atom_site_label
 _atom_site_symmetry_multiplicity
 _atom_site_fract_x
 _atom_site_fract_y
 _atom_site_fract_z
 _atom_site_occupancy
  Nd  Nd0  1  0.00000000  0.63361200  0.32924500  1.0
  Nd  Nd1  1  0.00000000  0.36638800  0.67075500  1.0
  Nd  Nd2  1  0.00000000  0.13361200  0.17075500  1.0
  Nd  Nd3  1  0.00000000  0.86638800  0.82924500  1.0
  Ti  Ti4  1  0.25199800  0.50000000  0.00000000  1.0
  Ti  Ti5  1  0.74800200  0.00000000  0.50000000  1.0
  Ti  Ti6  1  0.74800200  0.50000000  0.00000000  1.0
  Ti  Ti7  1  0.25199800  0.00000000  0.50000000  1.0
  Cr  Cr8  1  0.50000000  0.59966300  0.64527200  1.0
  Cr  Cr9  1  0.50000000  0.40033700  0.35472800  1.0
  Cr  Cr10  1  0.50000000  0.09966300  0.85472800  1.0
  Cr  Cr11  1  0.50000000  0.90033700  0.14527200  1.0
