# generated using pymatgen
data_Ti
_symmetry_space_group_name_H-M   'P 1'
_cell_length_a   5.54714000
_cell_length_b   5.67490781
_cell_length_c   5.91698353
_cell_angle_alpha   65.48953513
_cell_angle_beta   63.99551654
_cell_angle_gamma   68.24211124
_symmetry_Int_Tables_number   1
_chemical_formula_structural   Ti
_chemical_formula_sum   Ti2
_cell_volume   148.20580245
_cell_formula_units_Z   2
loop_
 _symmetry_equiv_pos_site_id
 _symmetry_equiv_pos_as_xyz
  1  'x, y, z'
loop_
 _atom_site_type_symbol
 _atom_site_label
 _atom_site_symmetry_multiplicity
 _atom_site_fract_x
 _atom_site_fract_y
 _atom_site_fract_z
 _atom_site_occupancy
  Ti  Ti0  1  0.25224800  0.08755900  0.91558300  1.0
  Ti  Ti1  1  0.74775200  0.91244100  0.08441700  1.0
