# generated using pymatgen
data_Gd3Fe5
_symmetry_space_group_name_H-M   'P 1'
_cell_length_a   10.93514377
_cell_length_b   10.93514411
_cell_length_c   10.93514340
_cell_angle_alpha   109.47121822
_cell_angle_beta   109.47122068
_cell_angle_gamma   109.47122724
_symmetry_Int_Tables_number   1
_chemical_formula_structural   Gd3Fe5
_chemical_formula_sum   'Gd12 Fe20'
_cell_volume   1006.58760316
_cell_formula_units_Z   4
loop_
 _symmetry_equiv_pos_site_id
 _symmetry_equiv_pos_as_xyz
  1  'x, y, z'
loop_
 _atom_site_type_symbol
 _atom_site_label
 _atom_site_symmetry_multiplicity
 _atom_site_fract_x
 _atom_site_fract_y
 _atom_site_fract_z
 _atom_site_occupancy
  Gd  Gd0  1  0.87500000  0.62500000  0.25000000  1.0
  Gd  Gd1  1  0.75000000  0.37500000  0.62500000  1.0
  Gd  Gd2  1  0.75000000  0.87500000  0.12500000  1.0
  Gd  Gd3  1  0.12500000  0.37500000  0.75000000  1.0
  Gd  Gd4  1  0.25000000  0.62500000  0.37500000  1.0
  Gd  Gd5  1  0.37500000  0.25000000  0.62500000  1.0
  Gd  Gd6  1  0.37500000  0.12500000  0.25000000  1.0
  Gd  Gd7  1  0.62500000  0.87500000  0.75000000  1.0
  Gd  Gd8  1  0.87500000  0.25000000  0.12500000  1.0
  Gd  Gd9  1  0.25000000  0.12500000  0.87500000  1.0
  Gd  Gd10  1  0.62500000  0.75000000  0.37500000  1.0
  Gd  Gd11  1  0.12500000  0.75000000  0.87500000  1.0
  Fe  Fe12  1  0.50000000  0.50000000  0.50000000  1.0
  Fe  Fe13  1  0.12500000  0.87500000  0.25000000  1.0
  Fe  Fe14  1  0.25000000  0.37500000  0.12500000  1.0
  Fe  Fe15  1  0.50000000  0.50000000  1.00000000  1.0
  Fe  Fe16  1  0.00000000  0.00000000  0.50000000  1.0
  Fe  Fe17  1  0.62500000  0.37500000  0.25000000  1.0
  Fe  Fe18  1  0.00000000  0.00000000  0.00000000  1.0
  Fe  Fe19  1  1.00000000  0.50000000  0.00000000  1.0
  Fe  Fe20  1  0.62500000  0.25000000  0.87500000  1.0
  Fe  Fe21  1  0.50000000  1.00000000  0.50000000  1.0
  Fe  Fe22  1  0.12500000  0.25000000  0.37500000  1.0
  Fe  Fe23  1  0.37500000  0.62500000  0.75000000  1.0
  Fe  Fe24  1  0.87500000  0.12500000  0.75000000  1.0
  Fe  Fe25  1  0.37500000  0.75000000  0.12500000  1.0
  Fe  Fe26  1  0.25000000  0.87500000  0.62500000  1.0
  Fe  Fe27  1  0.50000000  1.00000000  1.00000000  1.0
  Fe  Fe28  1  0.75000000  0.12500000  0.37500000  1.0
  Fe  Fe29  1  0.87500000  0.75000000  0.62500000  1.0
  Fe  Fe30  1  1.00000000  0.50000000  0.50000000  1.0
  Fe  Fe31  1  0.75000000  0.62500000  0.87500000  1.0
