# generated using pymatgen
data_Tm3Co29
_symmetry_space_group_name_H-M   'P 1'
_cell_length_a   7.81163600
_cell_length_b   11.11455700
_cell_length_c   11.11455700
_cell_angle_alpha   90.00000000
_cell_angle_beta   90.00000000
_cell_angle_gamma   90.00000000
_symmetry_Int_Tables_number   1
_chemical_formula_structural   Tm3Co29
_chemical_formula_sum   'Tm6 Co58'
_cell_volume   964.99777737
_cell_formula_units_Z   2
loop_
 _symmetry_equiv_pos_site_id
 _symmetry_equiv_pos_as_xyz
  1  'x, y, z'
loop_
 _atom_site_type_symbol
 _atom_site_label
 _atom_site_symmetry_multiplicity
 _atom_site_fract_x
 _atom_site_fract_y
 _atom_site_fract_z
 _atom_site_occupancy
  Tm  Tm0  1  0.00000000  0.25000000  0.75000000  1.0
  Tm  Tm1  1  0.00000000  0.25000000  0.25000000  1.0
  Tm  Tm2  1  1.00000000  0.75000000  0.75000000  1.0
  Tm  Tm3  1  1.00000000  0.75000000  0.25000000  1.0
  Tm  Tm4  1  0.50000000  0.00000000  0.00000000  1.0
  Tm  Tm5  1  0.50000000  0.50000000  0.50000000  1.0
  Co  Co6  1  0.33560400  0.33858400  0.67421800  1.0
  Co  Co7  1  0.52663600  0.27161600  0.00000000  1.0
  Co  Co8  1  0.52663600  0.50000000  0.77161600  1.0
  Co  Co9  1  0.52663600  0.50000000  0.22838400  1.0
  Co  Co10  1  0.97006900  0.83514200  0.50000000  1.0
  Co  Co11  1  0.97006900  0.00000000  0.66485800  1.0
  Co  Co12  1  0.97006900  0.00000000  0.33514200  1.0
  Co  Co13  1  0.97006900  0.16485800  0.50000000  1.0
  Co  Co14  1  0.02993100  0.66485800  0.00000000  1.0
  Co  Co15  1  0.02993100  0.33514200  0.00000000  1.0
  Co  Co16  1  0.02993100  0.50000000  0.83514200  1.0
  Co  Co17  1  0.02993100  0.50000000  0.16485800  1.0
  Co  Co18  1  0.24803300  0.88378300  0.38378300  1.0
  Co  Co19  1  0.24803300  0.88378300  0.61621700  1.0
  Co  Co20  1  0.24803300  0.11621700  0.38378300  1.0
  Co  Co21  1  0.24803300  0.11621700  0.61621700  1.0
  Co  Co22  1  0.75196700  0.61621700  0.88378300  1.0
  Co  Co23  1  0.75196700  0.38378300  0.11621700  1.0
  Co  Co24  1  0.75196700  0.38378300  0.88378300  1.0
  Co  Co25  1  0.75196700  0.61621700  0.11621700  1.0
  Co  Co26  1  0.69843600  0.88987000  0.38987000  1.0
  Co  Co27  1  0.69843600  0.88987000  0.61013000  1.0
  Co  Co28  1  0.69843600  0.11013000  0.38987000  1.0
  Co  Co29  1  0.69843600  0.11013000  0.61013000  1.0
  Co  Co30  1  0.30156400  0.61013000  0.88987000  1.0
  Co  Co31  1  0.30156400  0.38987000  0.11013000  1.0
  Co  Co32  1  0.30156400  0.38987000  0.88987000  1.0
  Co  Co33  1  0.30156400  0.61013000  0.11013000  1.0
  Co  Co34  1  0.33560400  0.33858400  0.32578200  1.0
  Co  Co35  1  0.33560400  0.82578200  0.16141600  1.0
  Co  Co36  1  0.33560400  0.17421800  0.83858400  1.0
  Co  Co37  1  0.33560400  0.66141600  0.67421800  1.0
  Co  Co38  1  0.66439600  0.16141600  0.82578200  1.0
  Co  Co39  1  0.66439600  0.83858400  0.17421800  1.0
  Co  Co40  1  0.66439600  0.32578200  0.33858400  1.0
  Co  Co41  1  0.88867300  0.61020000  0.50000000  1.0
  Co  Co42  1  0.66439600  0.16141600  0.17421800  1.0
  Co  Co43  1  0.66439600  0.67421800  0.33858400  1.0
  Co  Co44  1  0.66439600  0.32578200  0.66141600  1.0
  Co  Co45  1  0.66439600  0.83858400  0.82578200  1.0
  Co  Co46  1  0.52663600  0.72838400  0.00000000  1.0
  Co  Co47  1  0.88867300  0.00000000  0.88980000  1.0
  Co  Co48  1  0.33560400  0.17421800  0.16141600  1.0
  Co  Co49  1  0.33560400  0.82578200  0.83858400  1.0
  Co  Co50  1  0.88867300  1.00000000  0.11020000  1.0
  Co  Co51  1  0.88867300  0.38980000  0.50000000  1.0
  Co  Co52  1  0.53444400  0.50000000  0.00000000  1.0
  Co  Co53  1  0.46555600  1.00000000  0.50000000  1.0
  Co  Co54  1  0.11132700  0.11020000  0.00000000  1.0
  Co  Co55  1  0.47336400  0.22838400  0.50000000  1.0
  Co  Co56  1  0.47336400  0.00000000  0.27161600  1.0
  Co  Co57  1  0.47336400  0.00000000  0.72838400  1.0
  Co  Co58  1  0.47336400  0.77161600  0.50000000  1.0
  Co  Co59  1  0.11132700  0.50000000  0.61020000  1.0
  Co  Co60  1  0.11132700  0.50000000  0.38980000  1.0
  Co  Co61  1  0.11132700  0.88980000  0.00000000  1.0
  Co  Co62  1  0.66439600  0.67421800  0.66141600  1.0
  Co  Co63  1  0.33560400  0.66141600  0.32578200  1.0
