# generated using pymatgen
data_CoRu
_symmetry_space_group_name_H-M   'P 1'
_cell_length_a   5.59061312
_cell_length_b   5.77619044
_cell_length_c   7.90301309
_cell_angle_alpha   89.87598337
_cell_angle_beta   90.60704160
_cell_angle_gamma   89.73693974
_symmetry_Int_Tables_number   1
_chemical_formula_structural   CoRu
_chemical_formula_sum   'Co2 Ru2'
_cell_volume   255.18998559
_cell_formula_units_Z   2
loop_
 _symmetry_equiv_pos_site_id
 _symmetry_equiv_pos_as_xyz
  1  'x, y, z'
loop_
 _atom_site_type_symbol
 _atom_site_label
 _atom_site_symmetry_multiplicity
 _atom_site_fract_x
 _atom_site_fract_y
 _atom_site_fract_z
 _atom_site_occupancy
  Co  Co0  1  0.49999400  0.50000000  1.00000000  1.0
  Co  Co1  1  0.00000600  0.00000000  0.50000000  1.0
  Ru  Ru2  1  0.99999400  0.00000200  0.00000400  1.0
  Ru  Ru3  1  0.50000500  0.49999900  0.49999300  1.0
