# generated using pymatgen
data_MnFe2
_symmetry_space_group_name_H-M   'P 1'
_cell_length_a   6.09894900
_cell_length_b   6.09894072
_cell_length_c   6.09897021
_cell_angle_alpha   90.00032573
_cell_angle_beta   119.99994136
_cell_angle_gamma   119.99975753
_symmetry_Int_Tables_number   1
_chemical_formula_structural   MnFe2
_chemical_formula_sum   'Mn2 Fe4'
_cell_volume   160.41747270
_cell_formula_units_Z   2
loop_
 _symmetry_equiv_pos_site_id
 _symmetry_equiv_pos_as_xyz
  1  'x, y, z'
loop_
 _atom_site_type_symbol
 _atom_site_label
 _atom_site_symmetry_multiplicity
 _atom_site_fract_x
 _atom_site_fract_y
 _atom_site_fract_z
 _atom_site_occupancy
  Mn  Mn0  1  0.74999300  0.87499600  0.12499900  1.0
  Mn  Mn1  1  0.25000400  0.12500200  0.87500000  1.0
  Fe  Fe2  1  0.00000100  0.50000100  0.50000000  1.0
  Fe  Fe3  1  0.50000000  0.50000100  0.49999900  1.0
  Fe  Fe4  1  0.50000100  0.00000000  0.50000100  1.0
  Fe  Fe5  1  0.00000100  0.50000000  0.00000100  1.0
