# generated using pymatgen
data_Nd
_symmetry_space_group_name_H-M   'P 1'
_cell_length_a   6.78437600
_cell_length_b   15.34695600
_cell_length_c   15.34695620
_cell_angle_alpha   119.99999957
_cell_angle_beta   90.00000000
_cell_angle_gamma   90.00000000
_symmetry_Int_Tables_number   1
_chemical_formula_structural   Nd
_chemical_formula_sum   Nd30
_cell_volume   1383.83733798
_cell_formula_units_Z   30
loop_
 _symmetry_equiv_pos_site_id
 _symmetry_equiv_pos_as_xyz
  1  'x, y, z'
loop_
 _atom_site_type_symbol
 _atom_site_label
 _atom_site_symmetry_multiplicity
 _atom_site_fract_x
 _atom_site_fract_y
 _atom_site_fract_z
 _atom_site_occupancy
  Nd  Nd0  1  0.49971500  0.01734200  0.34221200  1.0
  Nd  Nd1  1  0.49971500  0.32487000  0.98265900  1.0
  Nd  Nd2  1  0.49971500  0.65778900  0.67513100  1.0
  Nd  Nd3  1  0.49971500  0.32487000  0.34221200  1.0
  Nd  Nd4  1  0.49971500  0.65778900  0.98265900  1.0
  Nd  Nd5  1  0.49971500  0.01734200  0.67513100  1.0
  Nd  Nd6  1  0.99971500  0.98265800  0.65778800  1.0
  Nd  Nd7  1  0.99971500  0.67513000  0.01734100  1.0
  Nd  Nd8  1  0.99971500  0.34221100  0.32486900  1.0
  Nd  Nd9  1  0.99971500  0.67513000  0.65778800  1.0
  Nd  Nd10  1  0.99971500  0.34221100  0.01734100  1.0
  Nd  Nd11  1  0.99971500  0.98265800  0.32486900  1.0
  Nd  Nd12  1  0.77084100  0.41254400  0.82508800  1.0
  Nd  Nd13  1  0.77084100  0.41254400  0.58745700  1.0
  Nd  Nd14  1  0.77084100  0.17491300  0.58745700  1.0
  Nd  Nd15  1  0.27084100  0.58745600  0.17491200  1.0
  Nd  Nd16  1  0.27084100  0.58745600  0.41254300  1.0
  Nd  Nd17  1  0.27084100  0.82508700  0.41254300  1.0
  Nd  Nd18  1  0.21121100  0.25465000  0.50930000  1.0
  Nd  Nd19  1  0.21121100  0.25465000  0.74535100  1.0
  Nd  Nd20  1  0.21121100  0.49070100  0.74535100  1.0
  Nd  Nd21  1  0.71121100  0.74535000  0.49070000  1.0
  Nd  Nd22  1  0.71121100  0.74535000  0.25464900  1.0
  Nd  Nd23  1  0.71121100  0.50929900  0.25464900  1.0
  Nd  Nd24  1  0.76741500  0.08082800  0.16165600  1.0
  Nd  Nd25  1  0.76741500  0.08082800  0.91917300  1.0
  Nd  Nd26  1  0.76741500  0.83834500  0.91917300  1.0
  Nd  Nd27  1  0.26741500  0.91917200  0.83834400  1.0
  Nd  Nd28  1  0.26741500  0.91917200  0.08082700  1.0
  Nd  Nd29  1  0.26741500  0.16165500  0.08082700  1.0
