# generated using pymatgen
data_Nb
_symmetry_space_group_name_H-M   'P 1'
_cell_length_a   7.82480400
_cell_length_b   13.13666822
_cell_length_c   13.41798677
_cell_angle_alpha   92.23243527
_cell_angle_beta   106.95250692
_cell_angle_gamma   90.00000000
_symmetry_Int_Tables_number   1
_chemical_formula_structural   Nb
_chemical_formula_sum   Nb8
_cell_volume   1318.23204067
_cell_formula_units_Z   8
loop_
 _symmetry_equiv_pos_site_id
 _symmetry_equiv_pos_as_xyz
  1  'x, y, z'
loop_
 _atom_site_type_symbol
 _atom_site_label
 _atom_site_symmetry_multiplicity
 _atom_site_fract_x
 _atom_site_fract_y
 _atom_site_fract_z
 _atom_site_occupancy
  Nb  Nb0  1  0.69975800  0.00545700  0.28150400  1.0
  Nb  Nb1  1  0.30024200  0.99454300  0.71849600  1.0
  Nb  Nb2  1  0.41825400  0.49454300  0.71849600  1.0
  Nb  Nb3  1  0.58174600  0.50545700  0.28150400  1.0
  Nb  Nb4  1  0.29345000  0.27719200  0.72002800  1.0
  Nb  Nb5  1  0.70655000  0.72280800  0.27997200  1.0
  Nb  Nb6  1  0.57342200  0.22280800  0.27997200  1.0
  Nb  Nb7  1  0.42657800  0.77719200  0.72002800  1.0
