# generated using pymatgen
data_Fe
_symmetry_space_group_name_H-M   'P 1'
_cell_length_a   5.14403100
_cell_length_b   6.57526040
_cell_length_c   6.73326933
_cell_angle_alpha   108.94071949
_cell_angle_beta   106.12899683
_cell_angle_gamma   98.14768761
_symmetry_Int_Tables_number   1
_chemical_formula_structural   Fe
_chemical_formula_sum   Fe4
_cell_volume   200.07895167
_cell_formula_units_Z   4
loop_
 _symmetry_equiv_pos_site_id
 _symmetry_equiv_pos_as_xyz
  1  'x, y, z'
loop_
 _atom_site_type_symbol
 _atom_site_label
 _atom_site_symmetry_multiplicity
 _atom_site_fract_x
 _atom_site_fract_y
 _atom_site_fract_z
 _atom_site_occupancy
  Fe  Fe0  1  0.10427300  0.75337700  0.03150400  1.0
  Fe  Fe1  1  0.89572700  0.24662300  0.96849600  1.0
  Fe  Fe2  1  0.65805900  0.62804700  0.25057300  1.0
  Fe  Fe3  1  0.34194100  0.37195300  0.74942700  1.0
