# generated using pymatgen
data_Ho
_symmetry_space_group_name_H-M   'P 1'
_cell_length_a   3.96032300
_cell_length_b   7.78052400
_cell_length_c   7.78052362
_cell_angle_alpha   120.00000162
_cell_angle_beta   90.00000000
_cell_angle_gamma   90.00000000
_symmetry_Int_Tables_number   1
_chemical_formula_structural   Ho
_chemical_formula_sum   Ho3
_cell_volume   207.62464590
_cell_formula_units_Z   3
loop_
 _symmetry_equiv_pos_site_id
 _symmetry_equiv_pos_as_xyz
  1  'x, y, z'
loop_
 _atom_site_type_symbol
 _atom_site_label
 _atom_site_symmetry_multiplicity
 _atom_site_fract_x
 _atom_site_fract_y
 _atom_site_fract_z
 _atom_site_occupancy
  Ho  Ho0  1  0.50000000  0.59858200  1.00000000  1.0
  Ho  Ho1  1  0.50000000  0.40141800  0.40141800  1.0
  Ho  Ho2  1  0.50000000  0.00000000  0.59858200  1.0
