# generated using pymatgen
data_V3Ni2
_symmetry_space_group_name_H-M   'P 1'
_cell_length_a   10.88681738
_cell_length_b   10.88681738
_cell_length_c   10.88681738
_cell_angle_alpha   109.63319580
_cell_angle_beta   109.39029381
_cell_angle_gamma   109.39029381
_symmetry_Int_Tables_number   1
_chemical_formula_structural   V3Ni2
_chemical_formula_sum   'V12 Ni8'
_cell_volume   993.29515954
_cell_formula_units_Z   4
loop_
 _symmetry_equiv_pos_site_id
 _symmetry_equiv_pos_as_xyz
  1  'x, y, z'
loop_
 _atom_site_type_symbol
 _atom_site_label
 _atom_site_symmetry_multiplicity
 _atom_site_fract_x
 _atom_site_fract_y
 _atom_site_fract_z
 _atom_site_occupancy
  V  V0  1  0.37622800  0.50122800  0.62500000  1.0
  V  V1  1  0.00000000  0.50000000  0.50000000  1.0
  V  V2  1  0.50000000  0.25000000  0.75000000  1.0
  V  V3  1  0.37622800  0.37500000  0.25122800  1.0
  V  V4  1  0.87622800  0.37500000  0.75122800  1.0
  V  V5  1  0.62377200  0.24877200  0.12500000  1.0
  V  V6  1  0.87622800  0.00122800  0.62500000  1.0
  V  V7  1  0.62377200  0.87500000  0.99877200  1.0
  V  V8  1  0.00000000  0.00000000  0.00000000  1.0
  V  V9  1  0.12377200  0.87500000  0.49877200  1.0
  V  V10  1  0.50000000  0.75000000  0.25000000  1.0
  V  V11  1  0.12377200  0.74877200  0.12500000  1.0
  Ni  Ni12  1  0.75000000  0.12500000  0.37500000  1.0
  Ni  Ni13  1  0.25000000  0.62500000  0.37500000  1.0
  Ni  Ni14  1  0.75000000  0.12500000  0.87500000  1.0
  Ni  Ni15  1  0.25000000  0.12500000  0.87500000  1.0
  Ni  Ni16  1  0.75000000  0.62500000  0.37500000  1.0
  Ni  Ni17  1  0.25000000  0.12500000  0.37500000  1.0
  Ni  Ni18  1  0.75000000  0.62500000  0.87500000  1.0
  Ni  Ni19  1  0.25000000  0.62500000  0.87500000  1.0
