# generated using pymatgen
data_Co
_symmetry_space_group_name_H-M   'P 1'
_cell_length_a   2.48696646
_cell_length_b   2.48696704
_cell_length_c   4.06328950
_cell_angle_alpha   89.99593338
_cell_angle_beta   89.99593412
_cell_angle_gamma   60.02119095
_symmetry_Int_Tables_number   1
_chemical_formula_structural   Co
_chemical_formula_sum   Co2
_cell_volume   21.76912893
_cell_formula_units_Z   2
loop_
 _symmetry_equiv_pos_site_id
 _symmetry_equiv_pos_as_xyz
  1  'x, y, z'
loop_
 _atom_site_type_symbol
 _atom_site_label
 _atom_site_symmetry_multiplicity
 _atom_site_fract_x
 _atom_site_fract_y
 _atom_site_fract_z
 _atom_site_occupancy
  Co  Co0  1  0.66666667  0.66670500  0.25986100  1.0
  Co  Co1  1  0.33329500  0.33333333  0.74013900  1.0
