# generated using pymatgen
data_Co
_symmetry_space_group_name_H-M   'P 1'
_cell_length_a   5.44598200
_cell_length_b   5.44598134
_cell_length_c   18.97349400
_cell_angle_alpha   90.00000000
_cell_angle_beta   90.00000000
_cell_angle_gamma   120.00000400
_symmetry_Int_Tables_number   1
_chemical_formula_structural   Co
_chemical_formula_sum   Co6
_cell_volume   487.33800252
_cell_formula_units_Z   6
loop_
 _symmetry_equiv_pos_site_id
 _symmetry_equiv_pos_as_xyz
  1  'x, y, z'
loop_
 _atom_site_type_symbol
 _atom_site_label
 _atom_site_symmetry_multiplicity
 _atom_site_fract_x
 _atom_site_fract_y
 _atom_site_fract_z
 _atom_site_occupancy
  Co  Co0  1  0.89271100  0.78542200  0.66666667  1.0
  Co  Co1  1  0.89271100  0.10728900  0.33333333  1.0
  Co  Co2  1  0.21457800  0.10728900  1.00000000  1.0
  Co  Co3  1  0.22585600  0.45171200  0.66666667  1.0
  Co  Co4  1  0.22585600  0.77414300  0.33333333  1.0
  Co  Co5  1  0.54828700  0.77414300  1.00000000  1.0
