# generated using pymatgen
data_Ti
_symmetry_space_group_name_H-M   'P 1'
_cell_length_a   6.51619300
_cell_length_b   10.42341400
_cell_length_c   12.92990100
_cell_angle_alpha   90.00000000
_cell_angle_beta   90.00000000
_cell_angle_gamma   90.00000000
_symmetry_Int_Tables_number   1
_chemical_formula_structural   Ti
_chemical_formula_sum   Ti8
_cell_volume   878.21151287
_cell_formula_units_Z   8
loop_
 _symmetry_equiv_pos_site_id
 _symmetry_equiv_pos_as_xyz
  1  'x, y, z'
loop_
 _atom_site_type_symbol
 _atom_site_label
 _atom_site_symmetry_multiplicity
 _atom_site_fract_x
 _atom_site_fract_y
 _atom_site_fract_z
 _atom_site_occupancy
  Ti  Ti0  1  0.01150800  0.99666200  0.87009000  1.0
  Ti  Ti1  1  0.98849200  0.49666200  0.12991000  1.0
  Ti  Ti2  1  0.51150800  0.49666200  0.62991000  1.0
  Ti  Ti3  1  0.48849200  0.99666200  0.37009000  1.0
  Ti  Ti4  1  0.24759700  0.72326600  0.77779400  1.0
  Ti  Ti5  1  0.75240300  0.22326600  0.22220600  1.0
  Ti  Ti6  1  0.74759700  0.22326600  0.72220600  1.0
  Ti  Ti7  1  0.25240300  0.72326600  0.27779400  1.0
