# generated using pymatgen
data_Fe
_symmetry_space_group_name_H-M   'P 1'
_cell_length_a   3.28351853
_cell_length_b   6.25844668
_cell_length_c   9.53459838
_cell_angle_alpha   105.13312201
_cell_angle_beta   91.07124752
_cell_angle_gamma   91.79936025
_symmetry_Int_Tables_number   1
_chemical_formula_structural   Fe
_chemical_formula_sum   Fe4
_cell_volume   188.97206791
_cell_formula_units_Z   4
loop_
 _symmetry_equiv_pos_site_id
 _symmetry_equiv_pos_as_xyz
  1  'x, y, z'
loop_
 _atom_site_type_symbol
 _atom_site_label
 _atom_site_symmetry_multiplicity
 _atom_site_fract_x
 _atom_site_fract_y
 _atom_site_fract_z
 _atom_site_occupancy
  Fe  Fe0  1  0.76272364  0.63635483  0.89970393  1.0
  Fe  Fe1  1  0.23727402  0.36364451  0.10029575  1.0
  Fe  Fe2  1  0.25236883  0.78681959  0.63960998  1.0
  Fe  Fe3  1  0.74762883  0.21317975  0.36038970  1.0
