# generated using pymatgen
data_ErRh
_symmetry_space_group_name_H-M   'P 1'
_cell_length_a   4.35862900
_cell_length_b   6.75933400
_cell_length_c   7.75905800
_cell_angle_alpha   90.00000000
_cell_angle_beta   90.00000000
_cell_angle_gamma   90.00000000
_symmetry_Int_Tables_number   1
_chemical_formula_structural   ErRh
_chemical_formula_sum   'Er4 Rh4'
_cell_volume   228.59293787
_cell_formula_units_Z   4
loop_
 _symmetry_equiv_pos_site_id
 _symmetry_equiv_pos_as_xyz
  1  'x, y, z'
loop_
 _atom_site_type_symbol
 _atom_site_label
 _atom_site_symmetry_multiplicity
 _atom_site_fract_x
 _atom_site_fract_y
 _atom_site_fract_z
 _atom_site_occupancy
  Er  Er0  1  0.25000000  0.98015600  0.30738900  1.0
  Er  Er1  1  0.25000000  0.48015600  0.19261100  1.0
  Er  Er2  1  0.75000000  0.01984400  0.69261100  1.0
  Er  Er3  1  0.75000000  0.51984400  0.80738900  1.0
  Rh  Rh4  1  0.25000000  0.22916200  0.89547600  1.0
  Rh  Rh5  1  0.25000000  0.72916200  0.60452400  1.0
  Rh  Rh6  1  0.75000000  0.77083800  0.10452400  1.0
  Rh  Rh7  1  0.75000000  0.27083800  0.39547600  1.0
