# generated using pymatgen
data_Mn
_symmetry_space_group_name_H-M   'P 1'
_cell_length_a   5.78883200
_cell_length_b   7.37222800
_cell_length_c   8.57659500
_cell_angle_alpha   90.00003559
_cell_angle_beta   90.00002326
_cell_angle_gamma   89.99998233
_symmetry_Int_Tables_number   1
_chemical_formula_structural   Mn
_chemical_formula_sum   Mn8
_cell_volume   366.01982290
_cell_formula_units_Z   8
loop_
 _symmetry_equiv_pos_site_id
 _symmetry_equiv_pos_as_xyz
  1  'x, y, z'
loop_
 _atom_site_type_symbol
 _atom_site_label
 _atom_site_symmetry_multiplicity
 _atom_site_fract_x
 _atom_site_fract_y
 _atom_site_fract_z
 _atom_site_occupancy
  Mn  Mn0  1  0.50000100  0.91138800  0.84868100  1.0
  Mn  Mn1  1  0.49999900  0.08861200  0.15131800  1.0
  Mn  Mn2  1  0.50000000  0.41140200  0.65131500  1.0
  Mn  Mn3  1  0.50000000  0.58859900  0.34868500  1.0
  Mn  Mn4  1  0.74589600  0.50000100  0.00000000  1.0
  Mn  Mn5  1  0.25410600  0.99999900  0.50000100  1.0
  Mn  Mn6  1  0.25410300  0.49999900  0.00000000  1.0
  Mn  Mn7  1  0.74589200  0.00000100  0.50000000  1.0
