# generated using pymatgen
data_Ho3Nb2
_symmetry_space_group_name_H-M   'P 1'
_cell_length_a   11.12355600
_cell_length_b   11.12355507
_cell_length_c   17.72862800
_cell_angle_alpha   90.00000000
_cell_angle_beta   90.00000000
_cell_angle_gamma   120.00000277
_symmetry_Int_Tables_number   1
_chemical_formula_structural   Ho3Nb2
_chemical_formula_sum   'Ho12 Nb8'
_cell_volume   1899.73490220
_cell_formula_units_Z   4
loop_
 _symmetry_equiv_pos_site_id
 _symmetry_equiv_pos_as_xyz
  1  'x, y, z'
loop_
 _atom_site_type_symbol
 _atom_site_label
 _atom_site_symmetry_multiplicity
 _atom_site_fract_x
 _atom_site_fract_y
 _atom_site_fract_z
 _atom_site_occupancy
  Ho  Ho0  1  0.47010100  0.47010100  0.40391000  1.0
  Ho  Ho1  1  0.52989900  0.52989900  0.59609000  1.0
  Ho  Ho2  1  0.00000000  0.52989900  0.40391000  1.0
  Ho  Ho3  1  0.52989900  0.52989900  0.90391000  1.0
  Ho  Ho4  1  0.00000000  0.52989900  0.09609000  1.0
  Ho  Ho5  1  0.00000000  0.47010100  0.59609000  1.0
  Ho  Ho6  1  0.47010100  0.47010100  0.09609000  1.0
  Ho  Ho7  1  0.00000000  0.47010100  0.90391000  1.0
  Ho  Ho8  1  0.52989900  0.00000000  0.40391000  1.0
  Ho  Ho9  1  0.47010100  1.00000000  0.59609000  1.0
  Ho  Ho10  1  0.47010100  1.00000000  0.90391000  1.0
  Ho  Ho11  1  0.52989900  0.00000000  0.09609000  1.0
  Nb  Nb12  1  0.00000000  0.00000000  0.50000000  1.0
  Nb  Nb13  1  0.00000000  0.00000000  0.00000000  1.0
  Nb  Nb14  1  0.27422600  0.27422600  0.25000000  1.0
  Nb  Nb15  1  0.72577400  0.72577400  0.75000000  1.0
  Nb  Nb16  1  0.00000000  0.72577400  0.25000000  1.0
  Nb  Nb17  1  0.00000000  0.27422600  0.75000000  1.0
  Nb  Nb18  1  0.72577400  0.00000000  0.25000000  1.0
  Nb  Nb19  1  0.27422600  1.00000000  0.75000000  1.0
