# generated using pymatgen
data_Cr2Co
_symmetry_space_group_name_H-M   'P 1'
_cell_length_a   5.98830300
_cell_length_b   5.98829550
_cell_length_c   5.98829558
_cell_angle_alpha   59.99994952
_cell_angle_beta   59.99995031
_cell_angle_gamma   59.99993244
_symmetry_Int_Tables_number   1
_chemical_formula_structural   Cr2Co
_chemical_formula_sum   'Cr4 Co2'
_cell_volume   151.84296317
_cell_formula_units_Z   2
loop_
 _symmetry_equiv_pos_site_id
 _symmetry_equiv_pos_as_xyz
  1  'x, y, z'
loop_
 _atom_site_type_symbol
 _atom_site_label
 _atom_site_symmetry_multiplicity
 _atom_site_fract_x
 _atom_site_fract_y
 _atom_site_fract_z
 _atom_site_occupancy
  Cr  Cr0  1  0.49999800  0.50000000  0.00000000  1.0
  Cr  Cr1  1  0.49999700  0.00000100  0.50000200  1.0
  Cr  Cr2  1  0.00000300  0.49999500  0.50000200  1.0
  Cr  Cr3  1  0.50000100  0.49999900  0.50000000  1.0
  Co  Co4  1  0.12500000  0.12500100  0.12499900  1.0
  Co  Co5  1  0.87500000  0.87500000  0.87500000  1.0
