# generated using pymatgen
data_Tb3Mo2
_symmetry_space_group_name_H-M   'P 1'
_cell_length_a   11.07310600
_cell_length_b   11.07310592
_cell_length_c   17.63055700
_cell_angle_alpha   90.00000000
_cell_angle_beta   90.00000000
_cell_angle_gamma   120.00000025
_symmetry_Int_Tables_number   1
_chemical_formula_structural   Tb3Mo2
_chemical_formula_sum   'Tb12 Mo8'
_cell_volume   1872.12815780
_cell_formula_units_Z   4
loop_
 _symmetry_equiv_pos_site_id
 _symmetry_equiv_pos_as_xyz
  1  'x, y, z'
loop_
 _atom_site_type_symbol
 _atom_site_label
 _atom_site_symmetry_multiplicity
 _atom_site_fract_x
 _atom_site_fract_y
 _atom_site_fract_z
 _atom_site_occupancy
  Tb  Tb0  1  0.53098200  0.00000000  0.09520300  1.0
  Tb  Tb1  1  0.46901800  0.46901800  0.09520300  1.0
  Tb  Tb2  1  1.00000000  0.53098200  0.09520300  1.0
  Tb  Tb3  1  0.46901800  1.00000000  0.90479700  1.0
  Tb  Tb4  1  0.53098200  0.53098200  0.90479700  1.0
  Tb  Tb5  1  0.00000000  0.46901800  0.90479700  1.0
  Tb  Tb6  1  0.46901800  1.00000000  0.59520300  1.0
  Tb  Tb7  1  0.53098200  0.53098200  0.59520300  1.0
  Tb  Tb8  1  0.00000000  0.46901800  0.59520300  1.0
  Tb  Tb9  1  0.53098200  0.00000000  0.40479700  1.0
  Tb  Tb10  1  0.46901800  0.46901800  0.40479700  1.0
  Tb  Tb11  1  1.00000000  0.53098200  0.40479700  1.0
  Mo  Mo12  1  0.72981500  0.00000000  0.25000000  1.0
  Mo  Mo13  1  0.27018500  0.27018500  0.25000000  1.0
  Mo  Mo14  1  0.00000000  0.72981500  0.25000000  1.0
  Mo  Mo15  1  0.27018500  0.00000000  0.75000000  1.0
  Mo  Mo16  1  0.72981500  0.72981500  0.75000000  1.0
  Mo  Mo17  1  1.00000000  0.27018500  0.75000000  1.0
  Mo  Mo18  1  0.00000000  0.00000000  0.00000000  1.0
  Mo  Mo19  1  0.00000000  0.00000000  0.50000000  1.0
