# generated using pymatgen
data_Ti
_symmetry_space_group_name_H-M   'P 1'
_cell_length_a   5.60438500
_cell_length_b   7.79742300
_cell_length_c   26.23729900
_cell_angle_alpha   90.00000000
_cell_angle_beta   90.00000000
_cell_angle_gamma   90.00000000
_symmetry_Int_Tables_number   1
_chemical_formula_structural   Ti
_chemical_formula_sum   Ti16
_cell_volume   1146.56368246
_cell_formula_units_Z   16
loop_
 _symmetry_equiv_pos_site_id
 _symmetry_equiv_pos_as_xyz
  1  'x, y, z'
loop_
 _atom_site_type_symbol
 _atom_site_label
 _atom_site_symmetry_multiplicity
 _atom_site_fract_x
 _atom_site_fract_y
 _atom_site_fract_z
 _atom_site_occupancy
  Ti  Ti0  1  0.21131500  0.88184100  0.08931700  1.0
  Ti  Ti1  1  0.71131500  0.11815900  0.91068300  1.0
  Ti  Ti2  1  0.21131500  0.61815900  0.58931700  1.0
  Ti  Ti3  1  0.71131500  0.38184100  0.41068300  1.0
  Ti  Ti4  1  0.74348600  0.87279800  0.18983100  1.0
  Ti  Ti5  1  0.24348600  0.12720200  0.81016900  1.0
  Ti  Ti6  1  0.74348600  0.62720200  0.68983100  1.0
  Ti  Ti7  1  0.24348600  0.37279800  0.31016900  1.0
  Ti  Ti8  1  0.24564200  0.87791400  0.31087200  1.0
  Ti  Ti9  1  0.74564200  0.12208600  0.68912800  1.0
  Ti  Ti10  1  0.24564200  0.62208600  0.81087200  1.0
  Ti  Ti11  1  0.74564200  0.37791400  0.18912800  1.0
  Ti  Ti12  1  0.70462500  0.87412100  0.41269400  1.0
  Ti  Ti13  1  0.20462500  0.12587900  0.58730600  1.0
  Ti  Ti14  1  0.70462500  0.62587900  0.91269400  1.0
  Ti  Ti15  1  0.20462500  0.37412100  0.08730600  1.0
