# generated using pymatgen
data_Dy
_symmetry_space_group_name_H-M   'P 1'
_cell_length_a   3.83479900
_cell_length_b   5.69707900
_cell_length_c   7.91658200
_cell_angle_alpha   90.00000000
_cell_angle_beta   90.00000000
_cell_angle_gamma   90.00000000
_symmetry_Int_Tables_number   1
_chemical_formula_structural   Dy
_chemical_formula_sum   Dy4
_cell_volume   172.95477702
_cell_formula_units_Z   4
loop_
 _symmetry_equiv_pos_site_id
 _symmetry_equiv_pos_as_xyz
  1  'x, y, z'
loop_
 _atom_site_type_symbol
 _atom_site_label
 _atom_site_symmetry_multiplicity
 _atom_site_fract_x
 _atom_site_fract_y
 _atom_site_fract_z
 _atom_site_occupancy
  Dy  Dy0  1  0.25000000  0.38536900  0.67946500  1.0
  Dy  Dy1  1  0.75000000  0.61463100  0.32053500  1.0
  Dy  Dy2  1  0.75000000  0.88536900  0.82053500  1.0
  Dy  Dy3  1  0.25000000  0.11463100  0.17946500  1.0
