# generated using pymatgen
data_Co
_symmetry_space_group_name_H-M   'P 1'
_cell_length_a   5.78186200
_cell_length_b   5.78186168
_cell_length_c   28.37466000
_cell_angle_alpha   90.00000000
_cell_angle_beta   90.00000000
_cell_angle_gamma   120.00000185
_symmetry_Int_Tables_number   1
_chemical_formula_structural   Co
_chemical_formula_sum   Co12
_cell_volume   821.47946153
_cell_formula_units_Z   12
loop_
 _symmetry_equiv_pos_site_id
 _symmetry_equiv_pos_as_xyz
  1  'x, y, z'
loop_
 _atom_site_type_symbol
 _atom_site_label
 _atom_site_symmetry_multiplicity
 _atom_site_fract_x
 _atom_site_fract_y
 _atom_site_fract_z
 _atom_site_occupancy
  Co  Co0  1  0.33333333  0.66666667  0.99825000  1.0
  Co  Co1  1  0.66666667  0.33333333  0.01934000  1.0
  Co  Co2  1  0.00000000  0.00000000  0.16550000  1.0
  Co  Co3  1  0.33333333  0.66666667  0.18708600  1.0
  Co  Co4  1  0.33333333  0.66666667  0.50017700  1.0
  Co  Co5  1  0.66666667  0.33333333  0.33320600  1.0
  Co  Co6  1  0.33333333  0.66666667  0.37397800  1.0
  Co  Co7  1  0.00000000  0.00000000  0.54160200  1.0
  Co  Co8  1  0.00000000  0.00000000  0.66706900  1.0
  Co  Co9  1  0.66666667  0.33333333  0.70858500  1.0
  Co  Co10  1  0.33333333  0.66666667  0.87673600  1.0
  Co  Co11  1  0.66666667  0.33333333  0.83275700  1.0
