# generated using pymatgen
data_Ho3Pb
_symmetry_space_group_name_H-M   'P 1'
_cell_length_a   4.07892400
_cell_length_b   7.06230019
_cell_length_c   38.19957400
_cell_angle_alpha   90.00000000
_cell_angle_beta   90.00000000
_cell_angle_gamma   106.78502330
_symmetry_Int_Tables_number   1
_chemical_formula_structural   Ho3Pb
_chemical_formula_sum   'Ho12 Pb4'
_cell_volume   1053.51680881
_cell_formula_units_Z   4
loop_
 _symmetry_equiv_pos_site_id
 _symmetry_equiv_pos_as_xyz
  1  'x, y, z'
loop_
 _atom_site_type_symbol
 _atom_site_label
 _atom_site_symmetry_multiplicity
 _atom_site_fract_x
 _atom_site_fract_y
 _atom_site_fract_z
 _atom_site_occupancy
  Ho  Ho0  1  0.24765800  0.49531600  0.68104600  1.0
  Ho  Ho1  1  0.75537000  0.51074000  0.31876600  1.0
  Ho  Ho2  1  0.24463000  0.48926000  0.81876600  1.0
  Ho  Ho3  1  0.75234200  0.50468400  0.18104600  1.0
  Ho  Ho4  1  0.02619300  0.05238600  0.13415200  1.0
  Ho  Ho5  1  0.97410400  0.94820800  0.86726200  1.0
  Ho  Ho6  1  0.02589600  0.05179200  0.36726200  1.0
  Ho  Ho7  1  0.97380700  0.94761400  0.63415200  1.0
  Ho  Ho8  1  0.00118500  0.00237000  0.49911300  1.0
  Ho  Ho9  1  0.99881500  0.99763000  0.99911300  1.0
  Ho  Ho10  1  0.73116000  0.46232000  0.94322900  1.0
  Ho  Ho11  1  0.26884000  0.53768000  0.44322900  1.0
  Pb  Pb12  1  0.51562200  0.03124400  0.74878700  1.0
  Pb  Pb13  1  0.48437800  0.96875600  0.24878700  1.0
  Pb  Pb14  1  0.27345800  0.54691600  0.05756300  1.0
  Pb  Pb15  1  0.72654200  0.45308400  0.55756300  1.0
