# generated using pymatgen
data_Os
_symmetry_space_group_name_H-M   'P 1'
_cell_length_a   4.08040600
_cell_length_b   6.43995800
_cell_length_c   7.50722100
_cell_angle_alpha   90.00000000
_cell_angle_beta   90.00000000
_cell_angle_gamma   90.00000000
_symmetry_Int_Tables_number   1
_chemical_formula_structural   Os
_chemical_formula_sum   Os4
_cell_volume   197.27207533
_cell_formula_units_Z   4
loop_
 _symmetry_equiv_pos_site_id
 _symmetry_equiv_pos_as_xyz
  1  'x, y, z'
loop_
 _atom_site_type_symbol
 _atom_site_label
 _atom_site_symmetry_multiplicity
 _atom_site_fract_x
 _atom_site_fract_y
 _atom_site_fract_z
 _atom_site_occupancy
  Os  Os0  1  0.25000000  0.16267900  0.44145000  1.0
  Os  Os1  1  0.25000000  0.66267900  0.05855000  1.0
  Os  Os2  1  0.75000000  0.83732100  0.55855000  1.0
  Os  Os3  1  0.75000000  0.33732100  0.94145000  1.0
