# generated using pymatgen
data_Dy3Cu4
_symmetry_space_group_name_H-M   'P 1'
_cell_length_a   4.18958800
_cell_length_b   6.64667400
_cell_length_c   7.98515330
_cell_angle_alpha   114.59424764
_cell_angle_beta   105.20872351
_cell_angle_gamma   90.00000000
_symmetry_Int_Tables_number   1
_chemical_formula_structural   Dy3Cu4
_chemical_formula_sum   'Dy3 Cu4'
_cell_volume   193.59040780
_cell_formula_units_Z   1
loop_
 _symmetry_equiv_pos_site_id
 _symmetry_equiv_pos_as_xyz
  1  'x, y, z'
loop_
 _atom_site_type_symbol
 _atom_site_label
 _atom_site_symmetry_multiplicity
 _atom_site_fract_x
 _atom_site_fract_y
 _atom_site_fract_z
 _atom_site_occupancy
  Dy  Dy0  1  0.13009700  0.13009700  0.26019400  1.0
  Dy  Dy1  1  0.86990300  0.86990300  0.73980600  1.0
  Dy  Dy2  1  0.00000000  0.50000000  0.00000000  1.0
  Cu  Cu3  1  0.33105400  0.14139600  0.66210800  1.0
  Cu  Cu4  1  0.66894600  0.85860400  0.33789200  1.0
  Cu  Cu5  1  0.33105400  0.52071200  0.66210800  1.0
  Cu  Cu6  1  0.66894600  0.47928800  0.33789200  1.0
