# generated using pymatgen
data_Dy3Ta2
_symmetry_space_group_name_H-M   'P 1'
_cell_length_a   11.13340400
_cell_length_b   11.13340340
_cell_length_c   17.73623100
_cell_angle_alpha   90.00000000
_cell_angle_beta   90.00000000
_cell_angle_gamma   120.00000179
_symmetry_Int_Tables_number   1
_chemical_formula_structural   Dy3Ta2
_chemical_formula_sum   'Dy12 Ta8'
_cell_volume   1903.91639795
_cell_formula_units_Z   4
loop_
 _symmetry_equiv_pos_site_id
 _symmetry_equiv_pos_as_xyz
  1  'x, y, z'
loop_
 _atom_site_type_symbol
 _atom_site_label
 _atom_site_symmetry_multiplicity
 _atom_site_fract_x
 _atom_site_fract_y
 _atom_site_fract_z
 _atom_site_occupancy
  Dy  Dy0  1  0.47039300  0.47039300  0.40370000  1.0
  Dy  Dy1  1  0.52960700  0.52960700  0.59630000  1.0
  Dy  Dy2  1  0.00000000  0.52960700  0.40370000  1.0
  Dy  Dy3  1  0.52960700  0.52960700  0.90370000  1.0
  Dy  Dy4  1  0.00000000  0.52960700  0.09630000  1.0
  Dy  Dy5  1  0.00000000  0.47039300  0.59630000  1.0
  Dy  Dy6  1  0.47039300  0.47039300  0.09630000  1.0
  Dy  Dy7  1  0.00000000  0.47039300  0.90370000  1.0
  Dy  Dy8  1  0.52960700  1.00000000  0.40370000  1.0
  Dy  Dy9  1  0.47039300  1.00000000  0.59630000  1.0
  Dy  Dy10  1  0.47039300  1.00000000  0.90370000  1.0
  Dy  Dy11  1  0.52960700  1.00000000  0.09630000  1.0
  Ta  Ta12  1  0.00000000  0.00000000  0.50000000  1.0
  Ta  Ta13  1  0.00000000  0.00000000  0.00000000  1.0
  Ta  Ta14  1  0.27435200  0.27435200  0.25000000  1.0
  Ta  Ta15  1  0.72564800  0.72564800  0.75000000  1.0
  Ta  Ta16  1  0.00000000  0.72564800  0.25000000  1.0
  Ta  Ta17  1  0.00000000  0.27435200  0.75000000  1.0
  Ta  Ta18  1  0.72564800  0.00000000  0.25000000  1.0
  Ta  Ta19  1  0.27435200  0.00000000  0.75000000  1.0
