# generated using pymatgen
data_TbRh
_symmetry_space_group_name_H-M   'P 1'
_cell_length_a   4.03409700
_cell_length_b   5.33744200
_cell_length_c   5.52298822
_cell_angle_alpha   90.00000000
_cell_angle_beta   111.42048441
_cell_angle_gamma   90.00000000
_symmetry_Int_Tables_number   1
_chemical_formula_structural   TbRh
_chemical_formula_sum   'Tb2 Rh2'
_cell_volume   110.70531158
_cell_formula_units_Z   2
loop_
 _symmetry_equiv_pos_site_id
 _symmetry_equiv_pos_as_xyz
  1  'x, y, z'
loop_
 _atom_site_type_symbol
 _atom_site_label
 _atom_site_symmetry_multiplicity
 _atom_site_fract_x
 _atom_site_fract_y
 _atom_site_fract_z
 _atom_site_occupancy
  Rh  Rh0  1  0.57304300  0.25000000  0.64608600  1.0
  Rh  Rh1  1  0.42695700  0.75000000  0.35391400  1.0
  Tb  Tb2  1  0.71230900  0.75000000  0.92461800  1.0
  Tb  Tb3  1  0.28769100  0.25000000  0.07538200  1.0
