# generated using pymatgen
data_MnCo
_symmetry_space_group_name_H-M   'P 1'
_cell_length_a   6.40108250
_cell_length_b   6.40764539
_cell_length_c   6.41171007
_cell_angle_alpha   91.99677790
_cell_angle_beta   91.97386558
_cell_angle_gamma   91.95699818
_symmetry_Int_Tables_number   1
_chemical_formula_structural   MnCo
_chemical_formula_sum   'Mn2 Co2'
_cell_volume   262.50165379
_cell_formula_units_Z   2
loop_
 _symmetry_equiv_pos_site_id
 _symmetry_equiv_pos_as_xyz
  1  'x, y, z'
loop_
 _atom_site_type_symbol
 _atom_site_label
 _atom_site_symmetry_multiplicity
 _atom_site_fract_x
 _atom_site_fract_y
 _atom_site_fract_z
 _atom_site_occupancy
  Mn  Mn0  1  0.49901600  0.49941500  0.50163800  1.0
  Mn  Mn1  1  0.99860400  0.00116800  0.00050300  1.0
  Co  Co2  1  0.25519300  0.24633500  0.24849300  1.0
  Co  Co3  1  0.75331300  0.75196100  0.74474700  1.0
