# generated using pymatgen
data_Cu
_symmetry_space_group_name_H-M   'P 1'
_cell_length_a   5.75816200
_cell_length_b   5.75816200
_cell_length_c   12.55863200
_cell_angle_alpha   90.00000000
_cell_angle_beta   90.00000000
_cell_angle_gamma   90.00000000
_symmetry_Int_Tables_number   1
_chemical_formula_structural   Cu
_chemical_formula_sum   Cu16
_cell_volume   416.39939801
_cell_formula_units_Z   16
loop_
 _symmetry_equiv_pos_site_id
 _symmetry_equiv_pos_as_xyz
  1  'x, y, z'
loop_
 _atom_site_type_symbol
 _atom_site_label
 _atom_site_symmetry_multiplicity
 _atom_site_fract_x
 _atom_site_fract_y
 _atom_site_fract_z
 _atom_site_occupancy
  Cu  Cu0  1  0.74793800  0.50000000  0.74329400  1.0
  Cu  Cu1  1  0.75195900  0.00000000  0.40049500  1.0
  Cu  Cu2  1  0.50000000  0.25206200  0.25670600  1.0
  Cu  Cu3  1  0.25195900  0.50000000  0.09950500  1.0
  Cu  Cu4  1  0.00000000  0.24793800  0.24329400  1.0
  Cu  Cu5  1  0.50000000  0.74804100  0.90049500  1.0
  Cu  Cu6  1  0.50000000  0.74793800  0.25670600  1.0
  Cu  Cu7  1  0.24804100  0.00000000  0.40049500  1.0
  Cu  Cu8  1  0.75206200  0.00000000  0.75670600  1.0
  Cu  Cu9  1  0.25206200  0.50000000  0.74329400  1.0
  Cu  Cu10  1  0.74804100  0.50000000  0.09950500  1.0
  Cu  Cu11  1  0.50000000  0.25195900  0.90049500  1.0
  Cu  Cu12  1  0.24793800  0.00000000  0.75670600  1.0
  Cu  Cu13  1  0.00000000  0.75206200  0.24329400  1.0
  Cu  Cu14  1  0.00000000  0.24804100  0.59950500  1.0
  Cu  Cu15  1  0.00000000  0.75195900  0.59950500  1.0
