# generated using pymatgen
data_Ni
_symmetry_space_group_name_H-M   'P 1'
_cell_length_a   4.71843900
_cell_length_b   4.71884350
_cell_length_c   9.36676450
_cell_angle_alpha   90.00158743
_cell_angle_beta   89.99960691
_cell_angle_gamma   89.99966609
_symmetry_Int_Tables_number   1
_chemical_formula_structural   Ni
_chemical_formula_sum   Ni2
_cell_volume   208.55639939
_cell_formula_units_Z   2
loop_
 _symmetry_equiv_pos_site_id
 _symmetry_equiv_pos_as_xyz
  1  'x, y, z'
loop_
 _atom_site_type_symbol
 _atom_site_label
 _atom_site_symmetry_multiplicity
 _atom_site_fract_x
 _atom_site_fract_y
 _atom_site_fract_z
 _atom_site_occupancy
  Ni  Ni0  1  0.49995400  0.50009100  0.50000000  1.0
  Ni  Ni1  1  0.00005300  0.00002400  0.99999100  1.0
