# generated using pymatgen
data_Fe
_symmetry_space_group_name_H-M   'P 1'
_cell_length_a   3.99310804
_cell_length_b   3.99313349
_cell_length_c   7.02663741
_cell_angle_alpha   106.23578856
_cell_angle_beta   106.22000324
_cell_angle_gamma   90.94377232
_symmetry_Int_Tables_number   1
_chemical_formula_structural   Fe
_chemical_formula_sum   Fe2
_cell_volume   102.74496494
_cell_formula_units_Z   2
loop_
 _symmetry_equiv_pos_site_id
 _symmetry_equiv_pos_as_xyz
  1  'x, y, z'
loop_
 _atom_site_type_symbol
 _atom_site_label
 _atom_site_symmetry_multiplicity
 _atom_site_fract_x
 _atom_site_fract_y
 _atom_site_fract_z
 _atom_site_occupancy
  Fe  Fe0  1  0.74993750  0.24994100  0.49999750  1.0
  Fe  Fe1  1  0.25006150  0.75005950  0.50000200  1.0
