# generated using pymatgen
data_Ru
_symmetry_space_group_name_H-M   'P 1'
_cell_length_a   4.05351800
_cell_length_b   4.05351800
_cell_length_c   6.14790314
_cell_angle_alpha   109.24854737
_cell_angle_beta   109.24854738
_cell_angle_gamma   89.99999998
_symmetry_Int_Tables_number   1
_chemical_formula_structural   Ru
_chemical_formula_sum   Ru2
_cell_volume   89.36596937
_cell_formula_units_Z   2
loop_
 _symmetry_equiv_pos_site_id
 _symmetry_equiv_pos_as_xyz
  1  'x, y, z'
loop_
 _atom_site_type_symbol
 _atom_site_label
 _atom_site_symmetry_multiplicity
 _atom_site_fract_x
 _atom_site_fract_y
 _atom_site_fract_z
 _atom_site_occupancy
  Ru  Ru0  1  0.75000000  0.25000000  0.50000000  1.0
  Ru  Ru1  1  0.25000000  0.75000000  0.50000000  1.0
