# generated using pymatgen
data_Tb
_symmetry_space_group_name_H-M   'P 1'
_cell_length_a   4.45971900
_cell_length_b   6.95998700
_cell_length_c   7.69265100
_cell_angle_alpha   90.00000000
_cell_angle_beta   90.00000000
_cell_angle_gamma   90.00000000
_symmetry_Int_Tables_number   1
_chemical_formula_structural   Tb
_chemical_formula_sum   Tb4
_cell_volume   238.77670431
_cell_formula_units_Z   4
loop_
 _symmetry_equiv_pos_site_id
 _symmetry_equiv_pos_as_xyz
  1  'x, y, z'
loop_
 _atom_site_type_symbol
 _atom_site_label
 _atom_site_symmetry_multiplicity
 _atom_site_fract_x
 _atom_site_fract_y
 _atom_site_fract_z
 _atom_site_occupancy
  Tb  Tb0  1  0.75000000  0.51636600  0.80303600  1.0
  Tb  Tb1  1  0.25000000  0.98363400  0.30303600  1.0
  Tb  Tb2  1  0.25000000  0.48363400  0.19696400  1.0
  Tb  Tb3  1  0.75000000  0.01636600  0.69696400  1.0
