# generated using pymatgen
data_Tc
_symmetry_space_group_name_H-M   'P 1'
_cell_length_a   5.61004200
_cell_length_b   5.62448040
_cell_length_c   5.62448040
_cell_angle_alpha   60.07154937
_cell_angle_beta   60.08488152
_cell_angle_gamma   60.08488151
_symmetry_Int_Tables_number   1
_chemical_formula_structural   Tc
_chemical_formula_sum   Tc2
_cell_volume   125.72070921
_cell_formula_units_Z   2
loop_
 _symmetry_equiv_pos_site_id
 _symmetry_equiv_pos_as_xyz
  1  'x, y, z'
loop_
 _atom_site_type_symbol
 _atom_site_label
 _atom_site_symmetry_multiplicity
 _atom_site_fract_x
 _atom_site_fract_y
 _atom_site_fract_z
 _atom_site_occupancy
  Tc  Tc0  1  0.50000000  0.50000000  0.50000000  1.0
  Tc  Tc1  1  0.00000000  0.00000000  0.00000000  1.0
