# generated using pymatgen
data_TiNi
_symmetry_space_group_name_H-M   'P 1'
_cell_length_a   5.07517989
_cell_length_b   5.07517989
_cell_length_c   5.50930440
_cell_angle_alpha   62.57411363
_cell_angle_beta   62.57411363
_cell_angle_gamma   60.00000136
_symmetry_Int_Tables_number   1
_chemical_formula_structural   TiNi
_chemical_formula_sum   'Ti2 Ni2'
_cell_volume   104.07081865
_cell_formula_units_Z   2
loop_
 _symmetry_equiv_pos_site_id
 _symmetry_equiv_pos_as_xyz
  1  'x, y, z'
loop_
 _atom_site_type_symbol
 _atom_site_label
 _atom_site_symmetry_multiplicity
 _atom_site_fract_x
 _atom_site_fract_y
 _atom_site_fract_z
 _atom_site_occupancy
  Ti  Ti0  1  0.85357500  0.85357500  0.43927500  1.0
  Ti  Ti1  1  0.35357500  0.35357500  0.93927500  1.0
  Ni  Ni2  1  0.64572100  0.64572100  0.06283700  1.0
  Ni  Ni3  1  0.14572100  0.14572100  0.56283700  1.0
