# generated using pymatgen
data_Mn2V3
_symmetry_space_group_name_H-M   'P 1'
_cell_length_a   11.06451609
_cell_length_b   11.06451609
_cell_length_c   11.06451609
_cell_angle_alpha   70.96996510
_cell_angle_beta   70.30773711
_cell_angle_gamma   109.69226289
_symmetry_Int_Tables_number   1
_chemical_formula_structural   Mn2V3
_chemical_formula_sum   'Mn8 V12'
_cell_volume   1042.69211142
_cell_formula_units_Z   4
loop_
 _symmetry_equiv_pos_site_id
 _symmetry_equiv_pos_as_xyz
  1  'x, y, z'
loop_
 _atom_site_type_symbol
 _atom_site_label
 _atom_site_symmetry_multiplicity
 _atom_site_fract_x
 _atom_site_fract_y
 _atom_site_fract_z
 _atom_site_occupancy
  Mn  Mn0  1  0.75000000  0.62500000  0.62500000  1.0
  Mn  Mn1  1  0.25000000  0.12500000  0.12500000  1.0
  Mn  Mn2  1  0.75000000  0.12500000  0.12500000  1.0
  Mn  Mn3  1  0.75000000  0.12500000  0.62500000  1.0
  Mn  Mn4  1  0.25000000  0.62500000  0.12500000  1.0
  Mn  Mn5  1  0.25000000  0.12500000  0.62500000  1.0
  Mn  Mn6  1  0.75000000  0.62500000  0.12500000  1.0
  Mn  Mn7  1  0.25000000  0.62500000  0.62500000  1.0
  V  V8  1  0.87796400  0.50296400  0.87500000  1.0
  V  V9  1  0.12203600  0.37500000  0.00296400  1.0
  V  V10  1  0.50000000  0.25000000  0.25000000  1.0
  V  V11  1  0.50000000  0.75000000  0.75000000  1.0
  V  V12  1  0.87796400  0.87500000  0.74703600  1.0
  V  V13  1  0.12203600  0.24703600  0.37500000  1.0
  V  V14  1  0.37796400  0.00296400  0.87500000  1.0
  V  V15  1  0.62203600  0.37500000  0.50296400  1.0
  V  V16  1  1.00000000  0.50000000  0.50000000  1.0
  V  V17  1  0.00000000  0.00000000  0.00000000  1.0
  V  V18  1  0.37796400  0.87500000  0.24703600  1.0
  V  V19  1  0.62203600  0.74703600  0.37500000  1.0
