# generated using pymatgen
data_Er
_symmetry_space_group_name_H-M   'P 1'
_cell_length_a   4.43911000
_cell_length_b   6.83777500
_cell_length_c   7.66371600
_cell_angle_alpha   90.00000000
_cell_angle_beta   90.00000000
_cell_angle_gamma   90.00000000
_symmetry_Int_Tables_number   1
_chemical_formula_structural   Er
_chemical_formula_sum   Er4
_cell_volume   232.62164112
_cell_formula_units_Z   4
loop_
 _symmetry_equiv_pos_site_id
 _symmetry_equiv_pos_as_xyz
  1  'x, y, z'
loop_
 _atom_site_type_symbol
 _atom_site_label
 _atom_site_symmetry_multiplicity
 _atom_site_fract_x
 _atom_site_fract_y
 _atom_site_fract_z
 _atom_site_occupancy
  Er  Er0  1  0.25000000  0.98482200  0.30265200  1.0
  Er  Er1  1  0.25000000  0.48482200  0.19734800  1.0
  Er  Er2  1  0.75000000  0.01517800  0.69734800  1.0
  Er  Er3  1  0.75000000  0.51517800  0.80265200  1.0
