# generated using pymatgen
data_Dy3Cr2
_symmetry_space_group_name_H-M   'P 1'
_cell_length_a   10.97020400
_cell_length_b   10.97020370
_cell_length_c   17.52616100
_cell_angle_alpha   90.00000000
_cell_angle_beta   90.00000000
_cell_angle_gamma   120.00000091
_symmetry_Int_Tables_number   1
_chemical_formula_structural   Dy3Cr2
_chemical_formula_sum   'Dy12 Cr8'
_cell_volume   1826.61416109
_cell_formula_units_Z   4
loop_
 _symmetry_equiv_pos_site_id
 _symmetry_equiv_pos_as_xyz
  1  'x, y, z'
loop_
 _atom_site_type_symbol
 _atom_site_label
 _atom_site_symmetry_multiplicity
 _atom_site_fract_x
 _atom_site_fract_y
 _atom_site_fract_z
 _atom_site_occupancy
  Dy  Dy0  1  0.52957600  1.00000000  0.09529400  1.0
  Dy  Dy1  1  0.47042400  0.47042400  0.09529400  1.0
  Dy  Dy2  1  1.00000000  0.52957600  0.09529400  1.0
  Dy  Dy3  1  0.47042400  1.00000000  0.90470600  1.0
  Dy  Dy4  1  0.52957600  0.52957600  0.90470600  1.0
  Dy  Dy5  1  0.00000000  0.47042400  0.90470600  1.0
  Dy  Dy6  1  0.47042400  1.00000000  0.59529400  1.0
  Dy  Dy7  1  0.52957600  0.52957600  0.59529400  1.0
  Dy  Dy8  1  0.00000000  0.47042400  0.59529400  1.0
  Dy  Dy9  1  0.52957600  1.00000000  0.40470600  1.0
  Dy  Dy10  1  0.47042400  0.47042400  0.40470600  1.0
  Dy  Dy11  1  1.00000000  0.52957600  0.40470600  1.0
  Cr  Cr12  1  0.73024900  0.00000000  0.25000000  1.0
  Cr  Cr13  1  0.26975100  0.26975100  0.25000000  1.0
  Cr  Cr14  1  1.00000000  0.73024900  0.25000000  1.0
  Cr  Cr15  1  0.26975100  0.00000000  0.75000000  1.0
  Cr  Cr16  1  0.73024900  0.73024900  0.75000000  1.0
  Cr  Cr17  1  1.00000000  0.26975100  0.75000000  1.0
  Cr  Cr18  1  0.00000000  0.00000000  0.00000000  1.0
  Cr  Cr19  1  0.00000000  0.00000000  0.50000000  1.0
