# generated using pymatgen
data_Eu
_symmetry_space_group_name_H-M   'P 1'
_cell_length_a   3.79421462
_cell_length_b   3.79421500
_cell_length_c   5.98596800
_cell_angle_alpha   90.00016165
_cell_angle_beta   90.00016002
_cell_angle_gamma   60.00252938
_symmetry_Int_Tables_number   1
_chemical_formula_structural   Eu
_chemical_formula_sum   Eu2
_cell_volume   74.63111350
_cell_formula_units_Z   2
loop_
 _symmetry_equiv_pos_site_id
 _symmetry_equiv_pos_as_xyz
  1  'x, y, z'
loop_
 _atom_site_type_symbol
 _atom_site_label
 _atom_site_symmetry_multiplicity
 _atom_site_fract_x
 _atom_site_fract_y
 _atom_site_fract_z
 _atom_site_occupancy
  Eu  Eu0  1  0.66666667  0.66666667  0.24463700  1.0
  Eu  Eu1  1  0.33333333  0.33333333  0.75536300  1.0
