# generated using pymatgen
data_CoMo
_symmetry_space_group_name_H-M   'P 1'
_cell_length_a   5.11611513
_cell_length_b   5.33199836
_cell_length_c   9.18593502
_cell_angle_alpha   89.98900192
_cell_angle_beta   89.99646012
_cell_angle_gamma   89.99384612
_symmetry_Int_Tables_number   1
_chemical_formula_structural   CoMo
_chemical_formula_sum   'Co2 Mo2'
_cell_volume   250.58419406
_cell_formula_units_Z   2
loop_
 _symmetry_equiv_pos_site_id
 _symmetry_equiv_pos_as_xyz
  1  'x, y, z'
loop_
 _atom_site_type_symbol
 _atom_site_label
 _atom_site_symmetry_multiplicity
 _atom_site_fract_x
 _atom_site_fract_y
 _atom_site_fract_z
 _atom_site_occupancy
  Co  Co0  1  0.49998500  0.50000800  0.47405200  1.0
  Co  Co1  1  0.99999400  0.99996200  0.52595000  1.0
  Mo  Mo2  1  0.50001200  0.99996200  0.80199400  1.0
  Mo  Mo3  1  0.00000500  0.49999100  0.19803400  1.0
