# generated using pymatgen
data_Gd
_symmetry_space_group_name_H-M   'P 1'
_cell_length_a   3.53952500
_cell_length_b   10.60070100
_cell_length_c   12.35742600
_cell_angle_alpha   90.00000000
_cell_angle_beta   90.00000000
_cell_angle_gamma   90.00000000
_symmetry_Int_Tables_number   1
_chemical_formula_structural   Gd
_chemical_formula_sum   Gd8
_cell_volume   463.66849492
_cell_formula_units_Z   8
loop_
 _symmetry_equiv_pos_site_id
 _symmetry_equiv_pos_as_xyz
  1  'x, y, z'
loop_
 _atom_site_type_symbol
 _atom_site_label
 _atom_site_symmetry_multiplicity
 _atom_site_fract_x
 _atom_site_fract_y
 _atom_site_fract_z
 _atom_site_occupancy
  Gd  Gd0  1  0.25000000  0.57501000  0.38867100  1.0
  Gd  Gd1  1  0.75000000  0.42499000  0.61132900  1.0
  Gd  Gd2  1  0.25000000  0.07501000  0.11132900  1.0
  Gd  Gd3  1  0.75000000  0.92499000  0.88867100  1.0
  Gd  Gd4  1  0.75000000  0.92249900  0.38996700  1.0
  Gd  Gd5  1  0.25000000  0.07750100  0.61003300  1.0
  Gd  Gd6  1  0.75000000  0.42249900  0.11003300  1.0
  Gd  Gd7  1  0.25000000  0.57750100  0.88996700  1.0
