# generated using pymatgen
data_CeV
_symmetry_space_group_name_H-M   'P 1'
_cell_length_a   6.81682100
_cell_length_b   7.35253200
_cell_length_c   6.96196607
_cell_angle_alpha   90.00000000
_cell_angle_beta   63.61207272
_cell_angle_gamma   90.00000000
_symmetry_Int_Tables_number   1
_chemical_formula_structural   CeV
_chemical_formula_sum   'Ce4 V4'
_cell_volume   312.58231696
_cell_formula_units_Z   4
loop_
 _symmetry_equiv_pos_site_id
 _symmetry_equiv_pos_as_xyz
  1  'x, y, z'
loop_
 _atom_site_type_symbol
 _atom_site_label
 _atom_site_symmetry_multiplicity
 _atom_site_fract_x
 _atom_site_fract_y
 _atom_site_fract_z
 _atom_site_occupancy
  Ce  Ce0  1  0.33236000  0.84114900  0.81144000  1.0
  Ce  Ce1  1  0.16764000  0.34114900  0.18856000  1.0
  Ce  Ce2  1  0.66764000  0.15885100  0.18856000  1.0
  Ce  Ce3  1  0.83236000  0.65885100  0.81144000  1.0
  V  V4  1  0.79969900  0.69439600  0.29674000  1.0
  V  V5  1  0.70030100  0.19439600  0.70326000  1.0
  V  V6  1  0.20030100  0.30560400  0.70326000  1.0
  V  V7  1  0.29969900  0.80560400  0.29674000  1.0
