# generated using pymatgen
data_U
_symmetry_space_group_name_H-M   'P 1'
_cell_length_a   4.49384000
_cell_length_b   4.65825700
_cell_length_c   12.27196199
_cell_angle_alpha   90.00000000
_cell_angle_beta   100.55001630
_cell_angle_gamma   90.00000000
_symmetry_Int_Tables_number   1
_chemical_formula_structural   U
_chemical_formula_sum   U3
_cell_volume   252.55195732
_cell_formula_units_Z   3
loop_
 _symmetry_equiv_pos_site_id
 _symmetry_equiv_pos_as_xyz
  1  'x, y, z'
loop_
 _atom_site_type_symbol
 _atom_site_label
 _atom_site_symmetry_multiplicity
 _atom_site_fract_x
 _atom_site_fract_y
 _atom_site_fract_z
 _atom_site_occupancy
  U  U0  1  0.80830100  1.00000000  0.61660200  1.0
  U  U1  1  0.19169900  0.00000000  0.38339800  1.0
  U  U2  1  0.00000000  0.00000000  0.00000000  1.0
