# generated using pymatgen
data_EuIr
_symmetry_space_group_name_H-M   'P 1'
_cell_length_a   4.58630200
_cell_length_b   7.39411100
_cell_length_c   8.91974912
_cell_angle_alpha   90.00000000
_cell_angle_beta   104.89728137
_cell_angle_gamma   90.00000000
_symmetry_Int_Tables_number   1
_chemical_formula_structural   EuIr
_chemical_formula_sum   'Eu2 Ir2'
_cell_volume   292.31621595
_cell_formula_units_Z   2
loop_
 _symmetry_equiv_pos_site_id
 _symmetry_equiv_pos_as_xyz
  1  'x, y, z'
loop_
 _atom_site_type_symbol
 _atom_site_label
 _atom_site_symmetry_multiplicity
 _atom_site_fract_x
 _atom_site_fract_y
 _atom_site_fract_z
 _atom_site_occupancy
  Eu  Eu0  1  0.62642800  0.75000000  0.25285600  1.0
  Eu  Eu1  1  0.37357200  0.25000000  0.74714400  1.0
  Ir  Ir2  1  0.27750300  0.75000000  0.55500600  1.0
  Ir  Ir3  1  0.72249700  0.25000000  0.44499400  1.0
