# generated using pymatgen
data_Nd3Ta2
_symmetry_space_group_name_H-M   'P 1'
_cell_length_a   11.21350600
_cell_length_b   11.21350595
_cell_length_c   17.96388600
_cell_angle_alpha   90.00000000
_cell_angle_beta   90.00000000
_cell_angle_gamma   120.00000016
_symmetry_Int_Tables_number   1
_chemical_formula_structural   Nd3Ta2
_chemical_formula_sum   'Nd12 Ta8'
_cell_volume   1956.20227234
_cell_formula_units_Z   4
loop_
 _symmetry_equiv_pos_site_id
 _symmetry_equiv_pos_as_xyz
  1  'x, y, z'
loop_
 _atom_site_type_symbol
 _atom_site_label
 _atom_site_symmetry_multiplicity
 _atom_site_fract_x
 _atom_site_fract_y
 _atom_site_fract_z
 _atom_site_occupancy
  Nd  Nd0  1  0.47164300  0.47164300  0.40404800  1.0
  Nd  Nd1  1  0.52835700  0.52835700  0.59595200  1.0
  Nd  Nd2  1  1.00000000  0.52835700  0.40404800  1.0
  Nd  Nd3  1  0.52835700  0.52835700  0.90404800  1.0
  Nd  Nd4  1  1.00000000  0.52835700  0.09595200  1.0
  Nd  Nd5  1  0.00000000  0.47164300  0.59595200  1.0
  Nd  Nd6  1  0.47164300  0.47164300  0.09595200  1.0
  Nd  Nd7  1  0.00000000  0.47164300  0.90404800  1.0
  Nd  Nd8  1  0.52835700  0.00000000  0.40404800  1.0
  Nd  Nd9  1  0.47164300  1.00000000  0.59595200  1.0
  Nd  Nd10  1  0.47164300  1.00000000  0.90404800  1.0
  Nd  Nd11  1  0.52835700  0.00000000  0.09595200  1.0
  Ta  Ta12  1  0.00000000  0.00000000  0.50000000  1.0
  Ta  Ta13  1  0.00000000  0.00000000  0.00000000  1.0
  Ta  Ta14  1  0.27231900  0.27231900  0.25000000  1.0
  Ta  Ta15  1  0.72768100  0.72768100  0.75000000  1.0
  Ta  Ta16  1  0.00000000  0.72768100  0.25000000  1.0
  Ta  Ta17  1  1.00000000  0.27231900  0.75000000  1.0
  Ta  Ta18  1  0.72768100  1.00000000  0.25000000  1.0
  Ta  Ta19  1  0.27231900  0.00000000  0.75000000  1.0
