# generated using pymatgen
data_GdCo
_symmetry_space_group_name_H-M   'P 1'
_cell_length_a   3.96916600
_cell_length_b   3.96916549
_cell_length_c   17.22114300
_cell_angle_alpha   90.00000000
_cell_angle_beta   90.00000000
_cell_angle_gamma   120.00000424
_symmetry_Int_Tables_number   1
_chemical_formula_structural   GdCo
_chemical_formula_sum   'Gd4 Co4'
_cell_volume   234.95844285
_cell_formula_units_Z   4
loop_
 _symmetry_equiv_pos_site_id
 _symmetry_equiv_pos_as_xyz
  1  'x, y, z'
loop_
 _atom_site_type_symbol
 _atom_site_label
 _atom_site_symmetry_multiplicity
 _atom_site_fract_x
 _atom_site_fract_y
 _atom_site_fract_z
 _atom_site_occupancy
  Gd  Gd0  1  0.00000000  0.00000000  0.89663100  1.0
  Gd  Gd1  1  0.00000000  0.00000000  0.10336900  1.0
  Gd  Gd2  1  0.00000000  0.00000000  0.39663100  1.0
  Gd  Gd3  1  0.00000000  0.00000000  0.60336900  1.0
  Co  Co4  1  0.66666667  0.33333333  0.49844000  1.0
  Co  Co5  1  0.33333333  0.66666667  0.50156000  1.0
  Co  Co6  1  0.33333333  0.66666667  0.99844000  1.0
  Co  Co7  1  0.66666667  0.33333333  0.00156000  1.0
