# generated using pymatgen
data_Rh
_symmetry_space_group_name_H-M   'P 1'
_cell_length_a   6.22047300
_cell_length_b   9.82810000
_cell_length_c   9.82810063
_cell_angle_alpha   119.99999788
_cell_angle_beta   90.00000000
_cell_angle_gamma   90.00000000
_symmetry_Int_Tables_number   1
_chemical_formula_structural   Rh
_chemical_formula_sum   Rh6
_cell_volume   520.34718761
_cell_formula_units_Z   6
loop_
 _symmetry_equiv_pos_site_id
 _symmetry_equiv_pos_as_xyz
  1  'x, y, z'
loop_
 _atom_site_type_symbol
 _atom_site_label
 _atom_site_symmetry_multiplicity
 _atom_site_fract_x
 _atom_site_fract_y
 _atom_site_fract_z
 _atom_site_occupancy
  Rh  Rh0  1  0.82009300  0.18981600  0.37963200  1.0
  Rh  Rh1  1  0.82009300  0.62036700  0.81018300  1.0
  Rh  Rh2  1  0.82009300  0.18981600  0.81018300  1.0
  Rh  Rh3  1  0.32009300  0.81018400  0.62036800  1.0
  Rh  Rh4  1  0.32009300  0.37963300  0.18981700  1.0
  Rh  Rh5  1  0.32009300  0.81018400  0.18981700  1.0
