# generated using pymatgen
data_Cr
_symmetry_space_group_name_H-M   'P 1'
_cell_length_a   3.00735000
_cell_length_b   7.19296529
_cell_length_c   7.19296529
_cell_angle_alpha   87.49531570
_cell_angle_beta   77.93343160
_cell_angle_gamma   77.93343159
_symmetry_Int_Tables_number   1
_chemical_formula_structural   Cr
_chemical_formula_sum   Cr4
_cell_volume   148.79679476
_cell_formula_units_Z   4
loop_
 _symmetry_equiv_pos_site_id
 _symmetry_equiv_pos_as_xyz
  1  'x, y, z'
loop_
 _atom_site_type_symbol
 _atom_site_label
 _atom_site_symmetry_multiplicity
 _atom_site_fract_x
 _atom_site_fract_y
 _atom_site_fract_z
 _atom_site_occupancy
  Cr  Cr0  1  0.16460700  0.18351200  0.48727400  1.0
  Cr  Cr1  1  0.83539300  0.81648800  0.51272600  1.0
  Cr  Cr2  1  0.65188100  0.51272600  0.18351200  1.0
  Cr  Cr3  1  0.34811900  0.48727400  0.81648800  1.0
