# generated using pymatgen
data_PrRu4
_symmetry_space_group_name_H-M   'P 1'
_cell_length_a   7.45378019
_cell_length_b   7.45378019
_cell_length_c   7.45378019
_cell_angle_alpha   109.47122063
_cell_angle_beta   109.47122064
_cell_angle_gamma   109.47122064
_symmetry_Int_Tables_number   1
_chemical_formula_structural   PrRu4
_chemical_formula_sum   'Pr1 Ru4'
_cell_volume   318.79232232
_cell_formula_units_Z   1
loop_
 _symmetry_equiv_pos_site_id
 _symmetry_equiv_pos_as_xyz
  1  'x, y, z'
loop_
 _atom_site_type_symbol
 _atom_site_label
 _atom_site_symmetry_multiplicity
 _atom_site_fract_x
 _atom_site_fract_y
 _atom_site_fract_z
 _atom_site_occupancy
  Pr  Pr0  1  0.00000000  0.00000000  0.00000000  1.0
  Ru  Ru1  1  1.00000000  1.00000000  0.50000000  1.0
  Ru  Ru2  1  0.50000000  0.50000000  0.50000000  1.0
  Ru  Ru3  1  1.00000000  0.50000000  0.00000000  1.0
  Ru  Ru4  1  0.50000000  1.00000000  1.00000000  1.0
