# generated using pymatgen
data_Fe
_symmetry_space_group_name_H-M   'P 1'
_cell_length_a   5.11631600
_cell_length_b   5.11631632
_cell_length_c   16.12407600
_cell_angle_alpha   90.00000000
_cell_angle_beta   90.00000000
_cell_angle_gamma   119.99999793
_symmetry_Int_Tables_number   1
_chemical_formula_structural   Fe
_chemical_formula_sum   Fe18
_cell_volume   365.52764169
_cell_formula_units_Z   18
loop_
 _symmetry_equiv_pos_site_id
 _symmetry_equiv_pos_as_xyz
  1  'x, y, z'
loop_
 _atom_site_type_symbol
 _atom_site_label
 _atom_site_symmetry_multiplicity
 _atom_site_fract_x
 _atom_site_fract_y
 _atom_site_fract_z
 _atom_site_occupancy
  Fe  Fe0  1  0.83365500  0.66731000  0.62833100  1.0
  Fe  Fe1  1  0.83365500  0.16634500  0.62833100  1.0
  Fe  Fe2  1  0.33269000  0.16634500  0.62833100  1.0
  Fe  Fe3  1  0.16634500  0.33269000  0.37166900  1.0
  Fe  Fe4  1  0.16634500  0.83365500  0.37166900  1.0
  Fe  Fe5  1  0.66731000  0.83365500  0.37166900  1.0
  Fe  Fe6  1  0.16634500  0.33269000  0.12833100  1.0
  Fe  Fe7  1  0.16634500  0.83365500  0.12833100  1.0
  Fe  Fe8  1  0.66731000  0.83365500  0.12833100  1.0
  Fe  Fe9  1  0.83365500  0.66731000  0.87166900  1.0
  Fe  Fe10  1  0.83365500  0.16634500  0.87166900  1.0
  Fe  Fe11  1  0.33269000  0.16634500  0.87166900  1.0
  Fe  Fe12  1  0.66666667  0.33333333  0.75000000  1.0
  Fe  Fe13  1  0.33333333  0.66666667  0.25000000  1.0
  Fe  Fe14  1  0.00000000  0.00000000  0.75000000  1.0
  Fe  Fe15  1  0.00000000  0.00000000  0.25000000  1.0
  Fe  Fe16  1  0.00000000  0.00000000  0.50000000  1.0
  Fe  Fe17  1  0.00000000  0.00000000  0.00000000  1.0
