# generated using pymatgen
data_Co
_symmetry_space_group_name_H-M   'P 1'
_cell_length_a   5.45330948
_cell_length_b   5.46330461
_cell_length_c   5.49258229
_cell_angle_alpha   61.60707101
_cell_angle_beta   61.03390133
_cell_angle_gamma   61.08767595
_symmetry_Int_Tables_number   1
_chemical_formula_structural   Co
_chemical_formula_sum   Co2
_cell_volume   118.93871385
_cell_formula_units_Z   2
loop_
 _symmetry_equiv_pos_site_id
 _symmetry_equiv_pos_as_xyz
  1  'x, y, z'
loop_
 _atom_site_type_symbol
 _atom_site_label
 _atom_site_symmetry_multiplicity
 _atom_site_fract_x
 _atom_site_fract_y
 _atom_site_fract_z
 _atom_site_occupancy
  Co  Co0  1  0.00122200  0.50157450  0.50005750  1.0
  Co  Co1  1  0.50042850  0.99930200  0.99929450  1.0
