# generated using pymatgen
data_Fe
_symmetry_space_group_name_H-M   'P 1'
_cell_length_a   5.10541500
_cell_length_b   8.32494228
_cell_length_c   8.34659736
_cell_angle_alpha   80.85522467
_cell_angle_beta   89.99991346
_cell_angle_gamma   89.99832551
_symmetry_Int_Tables_number   1
_chemical_formula_structural   Fe
_chemical_formula_sum   Fe4
_cell_volume   350.24056305
_cell_formula_units_Z   4
loop_
 _symmetry_equiv_pos_site_id
 _symmetry_equiv_pos_as_xyz
  1  'x, y, z'
loop_
 _atom_site_type_symbol
 _atom_site_label
 _atom_site_symmetry_multiplicity
 _atom_site_fract_x
 _atom_site_fract_y
 _atom_site_fract_z
 _atom_site_occupancy
  Fe  Fe0  1  0.18707100  0.95691500  0.79316200  1.0
  Fe  Fe1  1  0.58262000  0.54246900  0.70746000  1.0
  Fe  Fe2  1  0.68715500  0.04306900  0.20685500  1.0
  Fe  Fe3  1  0.08254400  0.45751400  0.29251000  1.0
