# generated using pymatgen
data_Mn
_symmetry_space_group_name_H-M   'P 1'
_cell_length_a   3.31694970
_cell_length_b   9.42862457
_cell_length_c   9.63219172
_cell_angle_alpha   90.00000000
_cell_angle_beta   90.00000000
_cell_angle_gamma   90.69965326
_symmetry_Int_Tables_number   1
_chemical_formula_structural   Mn
_chemical_formula_sum   Mn8
_cell_volume   301.21733830
_cell_formula_units_Z   8
loop_
 _symmetry_equiv_pos_site_id
 _symmetry_equiv_pos_as_xyz
  1  'x, y, z'
loop_
 _atom_site_type_symbol
 _atom_site_label
 _atom_site_symmetry_multiplicity
 _atom_site_fract_x
 _atom_site_fract_y
 _atom_site_fract_z
 _atom_site_occupancy
  Mn  Mn0  1  0.27296743  0.68027639  0.09760794  1.0
  Mn  Mn1  1  0.22703151  0.81972330  0.59760754  1.0
  Mn  Mn2  1  0.72703136  0.31972394  0.90239231  1.0
  Mn  Mn3  1  0.77296725  0.18027597  0.40239166  1.0
  Mn  Mn4  1  0.27270118  0.06324096  0.11822038  1.0
  Mn  Mn5  1  0.22729820  0.43675867  0.61821998  1.0
  Mn  Mn6  1  0.72729758  0.93675831  0.88177987  1.0
  Mn  Mn7  1  0.77270060  0.56324167  0.38177922  1.0
