# generated using pymatgen
data_Ti3Fe
_symmetry_space_group_name_H-M   'P 1'
_cell_length_a   3.96800350
_cell_length_b   3.96800350
_cell_length_c   20.70600862
_cell_angle_alpha   84.57108651
_cell_angle_beta   84.57108651
_cell_angle_gamma   88.55952303
_symmetry_Int_Tables_number   1
_chemical_formula_structural   Ti3Fe
_chemical_formula_sum   'Ti3 Fe1'
_cell_volume   323.05583680
_cell_formula_units_Z   1
loop_
 _symmetry_equiv_pos_site_id
 _symmetry_equiv_pos_as_xyz
  1  'x, y, z'
loop_
 _atom_site_type_symbol
 _atom_site_label
 _atom_site_symmetry_multiplicity
 _atom_site_fract_x
 _atom_site_fract_y
 _atom_site_fract_z
 _atom_site_occupancy
  Ti  Ti0  1  0.42230800  0.42230800  0.09867200  1.0
  Ti  Ti1  1  0.62214300  0.62214300  0.69674900  1.0
  Ti  Ti2  1  0.31835000  0.31835000  0.30228900  1.0
  Fe  Fe3  1  0.50884100  0.50884100  0.90118600  1.0
