# generated using pymatgen
data_Tm3Ti2
_symmetry_space_group_name_H-M   'P 1'
_cell_length_a   11.04570800
_cell_length_b   11.04570910
_cell_length_c   17.69112600
_cell_angle_alpha   90.00000000
_cell_angle_beta   90.00000000
_cell_angle_gamma   119.99999671
_symmetry_Int_Tables_number   1
_chemical_formula_structural   Tm3Ti2
_chemical_formula_sum   'Tm12 Ti8'
_cell_volume   1869.27536053
_cell_formula_units_Z   4
loop_
 _symmetry_equiv_pos_site_id
 _symmetry_equiv_pos_as_xyz
  1  'x, y, z'
loop_
 _atom_site_type_symbol
 _atom_site_label
 _atom_site_symmetry_multiplicity
 _atom_site_fract_x
 _atom_site_fract_y
 _atom_site_fract_z
 _atom_site_occupancy
  Tm  Tm0  1  0.46872700  0.46872700  0.40337800  1.0
  Tm  Tm1  1  0.53127300  0.53127300  0.59662200  1.0
  Tm  Tm2  1  1.00000000  0.53127300  0.40337800  1.0
  Tm  Tm3  1  0.53127300  0.53127300  0.90337800  1.0
  Tm  Tm4  1  1.00000000  0.53127300  0.09662200  1.0
  Tm  Tm5  1  1.00000000  0.46872700  0.59662200  1.0
  Tm  Tm6  1  0.46872700  0.46872700  0.09662200  1.0
  Tm  Tm7  1  1.00000000  0.46872700  0.90337800  1.0
  Tm  Tm8  1  0.53127300  0.00000000  0.40337800  1.0
  Tm  Tm9  1  0.46872700  1.00000000  0.59662200  1.0
  Tm  Tm10  1  0.46872700  1.00000000  0.90337800  1.0
  Tm  Tm11  1  0.53127300  0.00000000  0.09662200  1.0
  Ti  Ti12  1  0.00000000  0.00000000  0.50000000  1.0
  Ti  Ti13  1  0.00000000  0.00000000  0.00000000  1.0
  Ti  Ti14  1  0.27238100  0.27238100  0.25000000  1.0
  Ti  Ti15  1  0.72761900  0.72761900  0.75000000  1.0
  Ti  Ti16  1  1.00000000  0.72761900  0.25000000  1.0
  Ti  Ti17  1  1.00000000  0.27238100  0.75000000  1.0
  Ti  Ti18  1  0.72761900  0.00000000  0.25000000  1.0
  Ti  Ti19  1  0.27238100  0.00000000  0.75000000  1.0
