# generated using pymatgen
data_HoCu2
_symmetry_space_group_name_H-M   'P 1'
_cell_length_a   4.30478200
_cell_length_b   5.43726986
_cell_length_c   5.43726986
_cell_angle_alpha   77.67576561
_cell_angle_beta   66.68045540
_cell_angle_gamma   66.68045539
_symmetry_Int_Tables_number   1
_chemical_formula_structural   HoCu2
_chemical_formula_sum   'Ho2 Cu4'
_cell_volume   107.07982048
_cell_formula_units_Z   2
loop_
 _symmetry_equiv_pos_site_id
 _symmetry_equiv_pos_as_xyz
  1  'x, y, z'
loop_
 _atom_site_type_symbol
 _atom_site_label
 _atom_site_symmetry_multiplicity
 _atom_site_fract_x
 _atom_site_fract_y
 _atom_site_fract_z
 _atom_site_occupancy
  Ho  Ho0  1  0.45564200  0.79435800  0.29435800  1.0
  Ho  Ho1  1  0.54435800  0.20564200  0.70564200  1.0
  Cu  Cu2  1  0.83632600  0.21809900  0.10924900  1.0
  Cu  Cu3  1  0.16367400  0.78190100  0.89075100  1.0
  Cu  Cu4  1  0.16367500  0.39075100  0.28190000  1.0
  Cu  Cu5  1  0.83632500  0.60924900  0.71810000  1.0
