# generated using pymatgen
data_Pr2Os
_symmetry_space_group_name_H-M   'P 1'
_cell_length_a   5.51420100
_cell_length_b   5.85547600
_cell_length_c   7.85179559
_cell_angle_alpha   90.00000000
_cell_angle_beta   89.50620992
_cell_angle_gamma   90.00000000
_symmetry_Int_Tables_number   1
_chemical_formula_structural   Pr2Os
_chemical_formula_sum   'Pr4 Os2'
_cell_volume   253.51149376
_cell_formula_units_Z   2
loop_
 _symmetry_equiv_pos_site_id
 _symmetry_equiv_pos_as_xyz
  1  'x, y, z'
loop_
 _atom_site_type_symbol
 _atom_site_label
 _atom_site_symmetry_multiplicity
 _atom_site_fract_x
 _atom_site_fract_y
 _atom_site_fract_z
 _atom_site_occupancy
  Pr  Pr0  1  0.01630500  0.43155300  0.75129600  1.0
  Pr  Pr1  1  0.48369500  0.93155300  0.74870400  1.0
  Pr  Pr2  1  0.98369500  0.56844700  0.24870400  1.0
  Pr  Pr3  1  0.51630500  0.06844700  0.25129600  1.0
  Os  Os4  1  0.00000000  0.00000000  0.50000000  1.0
  Os  Os5  1  0.50000000  0.50000000  1.00000000  1.0
