# generated using pymatgen
data_Nd
_symmetry_space_group_name_H-M   'P 1'
_cell_length_a   3.63368500
_cell_length_b   10.74319000
_cell_length_c   12.60409000
_cell_angle_alpha   90.00000000
_cell_angle_beta   90.00000000
_cell_angle_gamma   90.00000000
_symmetry_Int_Tables_number   1
_chemical_formula_structural   Nd
_chemical_formula_sum   Nd8
_cell_volume   492.03050411
_cell_formula_units_Z   8
loop_
 _symmetry_equiv_pos_site_id
 _symmetry_equiv_pos_as_xyz
  1  'x, y, z'
loop_
 _atom_site_type_symbol
 _atom_site_label
 _atom_site_symmetry_multiplicity
 _atom_site_fract_x
 _atom_site_fract_y
 _atom_site_fract_z
 _atom_site_occupancy
  Nd  Nd0  1  0.25000000  0.42409800  0.88782400  1.0
  Nd  Nd1  1  0.75000000  0.57590200  0.11217600  1.0
  Nd  Nd2  1  0.25000000  0.92409800  0.61217600  1.0
  Nd  Nd3  1  0.75000000  0.07590200  0.38782400  1.0
  Nd  Nd4  1  0.75000000  0.07892300  0.88861000  1.0
  Nd  Nd5  1  0.25000000  0.92107700  0.11139000  1.0
  Nd  Nd6  1  0.75000000  0.57892300  0.61139000  1.0
  Nd  Nd7  1  0.25000000  0.42107700  0.38861000  1.0
