# generated using pymatgen
data_Ni
_symmetry_space_group_name_H-M   'P 1'
_cell_length_a   5.81955000
_cell_length_b   5.82140587
_cell_length_c   6.89594738
_cell_angle_alpha   81.97374968
_cell_angle_beta   73.77902591
_cell_angle_gamma   60.01054530
_symmetry_Int_Tables_number   1
_chemical_formula_structural   Ni
_chemical_formula_sum   Ni2
_cell_volume   194.28794121
_cell_formula_units_Z   2
loop_
 _symmetry_equiv_pos_site_id
 _symmetry_equiv_pos_as_xyz
  1  'x, y, z'
loop_
 _atom_site_type_symbol
 _atom_site_label
 _atom_site_symmetry_multiplicity
 _atom_site_fract_x
 _atom_site_fract_y
 _atom_site_fract_z
 _atom_site_occupancy
  Ni  Ni0  1  0.66686800  0.66626400  0.00000000  1.0
  Ni  Ni1  1  0.33313200  0.33373600  0.00000000  1.0
