# generated using pymatgen
data_Gd
_symmetry_space_group_name_H-M   'P 1'
_cell_length_a   6.94474100
_cell_length_b   7.27162900
_cell_length_c   13.81985100
_cell_angle_alpha   90.00000000
_cell_angle_beta   90.00000000
_cell_angle_gamma   90.00000000
_symmetry_Int_Tables_number   1
_chemical_formula_structural   Gd
_chemical_formula_sum   Gd8
_cell_volume   697.89667190
_cell_formula_units_Z   8
loop_
 _symmetry_equiv_pos_site_id
 _symmetry_equiv_pos_as_xyz
  1  'x, y, z'
loop_
 _atom_site_type_symbol
 _atom_site_label
 _atom_site_symmetry_multiplicity
 _atom_site_fract_x
 _atom_site_fract_y
 _atom_site_fract_z
 _atom_site_occupancy
  Gd  Gd0  1  0.00959400  0.17375000  0.09674300  1.0
  Gd  Gd1  1  0.99040600  0.82625000  0.90325700  1.0
  Gd  Gd2  1  0.49040600  0.67375000  0.90325700  1.0
  Gd  Gd3  1  0.99040600  0.82625000  0.59674300  1.0
  Gd  Gd4  1  0.50959400  0.32625000  0.09674300  1.0
  Gd  Gd5  1  0.00959400  0.17375000  0.40325700  1.0
  Gd  Gd6  1  0.50959400  0.32625000  0.40325700  1.0
  Gd  Gd7  1  0.49040600  0.67375000  0.59674300  1.0
