# generated using pymatgen
data_Co
_symmetry_space_group_name_H-M   'P 1'
_cell_length_a   7.77368400
_cell_length_b   7.96378985
_cell_length_c   7.77368400
_cell_angle_alpha   119.21343683
_cell_angle_beta   89.99999999
_cell_angle_gamma   119.21343683
_symmetry_Int_Tables_number   1
_chemical_formula_structural   Co
_chemical_formula_sum   Co18
_cell_volume   348.23123153
_cell_formula_units_Z   18
loop_
 _symmetry_equiv_pos_site_id
 _symmetry_equiv_pos_as_xyz
  1  'x, y, z'
loop_
 _atom_site_type_symbol
 _atom_site_label
 _atom_site_symmetry_multiplicity
 _atom_site_fract_x
 _atom_site_fract_y
 _atom_site_fract_z
 _atom_site_occupancy
  Co  Co0  1  0.06916900  0.00000000  0.80021100  1.0
  Co  Co1  1  0.19118400  0.64013300  0.94894900  1.0
  Co  Co2  1  0.69118400  0.64013300  0.19118400  1.0
  Co  Co3  1  0.80881600  0.35986700  0.05105100  1.0
  Co  Co4  1  0.30881600  0.35986700  0.80881600  1.0
  Co  Co5  1  0.05105100  0.35986700  0.55105100  1.0
  Co  Co6  1  0.93083100  1.00000000  0.19978900  1.0
  Co  Co7  1  0.69978900  1.00000000  0.43083100  1.0
  Co  Co8  1  0.94894900  0.64013300  0.44894900  1.0
  Co  Co9  1  0.43083100  1.00000000  0.30021100  1.0
  Co  Co10  1  0.55105100  0.35986700  0.30881600  1.0
  Co  Co11  1  0.19978900  1.00000000  0.06916900  1.0
  Co  Co12  1  0.56916900  0.00000000  0.69978900  1.0
  Co  Co13  1  0.30021100  0.00000000  0.56916900  1.0
  Co  Co14  1  0.80021100  0.00000000  0.93083100  1.0
  Co  Co15  1  0.00000000  0.00000000  0.50000000  1.0
  Co  Co16  1  0.44894900  0.64013300  0.69118400  1.0
  Co  Co17  1  0.50000000  0.00000000  0.00000000  1.0
