# generated using pymatgen
data_Ti3Fe2
_symmetry_space_group_name_H-M   'P 1'
_cell_length_a   4.00049879
_cell_length_b   4.00049879
_cell_length_c   24.66923968
_cell_angle_alpha   85.68327893
_cell_angle_beta   85.68327893
_cell_angle_gamma   88.28901083
_symmetry_Int_Tables_number   1
_chemical_formula_structural   Ti3Fe2
_chemical_formula_sum   'Ti3 Fe2'
_cell_volume   392.45328060
_cell_formula_units_Z   1
loop_
 _symmetry_equiv_pos_site_id
 _symmetry_equiv_pos_as_xyz
  1  'x, y, z'
loop_
 _atom_site_type_symbol
 _atom_site_label
 _atom_site_symmetry_multiplicity
 _atom_site_fract_x
 _atom_site_fract_y
 _atom_site_fract_z
 _atom_site_occupancy
  Ti  Ti0  1  0.56297100  0.56297100  0.83431200  1.0
  Ti  Ti1  1  0.31807000  0.31807000  0.33572700  1.0
  Ti  Ti2  1  0.65116600  0.65116600  0.66729500  1.0
  Fe  Fe3  1  0.49164800  0.49164800  0.99880900  1.0
  Fe  Fe4  1  0.40575600  0.40575600  0.16562400  1.0
