# generated using pymatgen
data_Ho3Cr2
_symmetry_space_group_name_H-M   'P 1'
_cell_length_a   10.92044200
_cell_length_b   10.92044097
_cell_length_c   17.47125800
_cell_angle_alpha   90.00000000
_cell_angle_beta   90.00000000
_cell_angle_gamma   120.00000313
_symmetry_Int_Tables_number   1
_chemical_formula_structural   Ho3Cr2
_chemical_formula_sum   'Ho12 Cr8'
_cell_volume   1804.40984262
_cell_formula_units_Z   4
loop_
 _symmetry_equiv_pos_site_id
 _symmetry_equiv_pos_as_xyz
  1  'x, y, z'
loop_
 _atom_site_type_symbol
 _atom_site_label
 _atom_site_symmetry_multiplicity
 _atom_site_fract_x
 _atom_site_fract_y
 _atom_site_fract_z
 _atom_site_occupancy
  Ho  Ho0  1  0.52992100  1.00000000  0.09533100  1.0
  Ho  Ho1  1  0.47007900  0.47007900  0.09533100  1.0
  Ho  Ho2  1  1.00000000  0.52992100  0.09533100  1.0
  Ho  Ho3  1  0.47007900  1.00000000  0.90466900  1.0
  Ho  Ho4  1  0.52992100  0.52992100  0.90466900  1.0
  Ho  Ho5  1  1.00000000  0.47007900  0.90466900  1.0
  Ho  Ho6  1  0.47007900  1.00000000  0.59533100  1.0
  Ho  Ho7  1  0.52992100  0.52992100  0.59533100  1.0
  Ho  Ho8  1  1.00000000  0.47007900  0.59533100  1.0
  Ho  Ho9  1  0.52992100  1.00000000  0.40466900  1.0
  Ho  Ho10  1  0.47007900  0.47007900  0.40466900  1.0
  Ho  Ho11  1  1.00000000  0.52992100  0.40466900  1.0
  Cr  Cr12  1  0.73000700  0.00000000  0.25000000  1.0
  Cr  Cr13  1  0.26999300  0.26999300  0.25000000  1.0
  Cr  Cr14  1  1.00000000  0.73000700  0.25000000  1.0
  Cr  Cr15  1  0.26999300  0.00000000  0.75000000  1.0
  Cr  Cr16  1  0.73000700  0.73000700  0.75000000  1.0
  Cr  Cr17  1  1.00000000  0.26999300  0.75000000  1.0
  Cr  Cr18  1  0.00000000  0.00000000  0.00000000  1.0
  Cr  Cr19  1  0.00000000  0.00000000  0.50000000  1.0
