# generated using pymatgen
data_Cr
_symmetry_space_group_name_H-M   'P 1'
_cell_length_a   5.46763900
_cell_length_b   5.67657300
_cell_length_c   7.84075600
_cell_angle_alpha   90.00004942
_cell_angle_beta   90.00093606
_cell_angle_gamma   89.99982533
_symmetry_Int_Tables_number   1
_chemical_formula_structural   Cr
_chemical_formula_sum   Cr4
_cell_volume   243.35708734
_cell_formula_units_Z   4
loop_
 _symmetry_equiv_pos_site_id
 _symmetry_equiv_pos_as_xyz
  1  'x, y, z'
loop_
 _atom_site_type_symbol
 _atom_site_label
 _atom_site_symmetry_multiplicity
 _atom_site_fract_x
 _atom_site_fract_y
 _atom_site_fract_z
 _atom_site_occupancy
  Cr  Cr0  1  0.99999900  0.50000300  0.99999900  1.0
  Cr  Cr1  1  0.49999900  0.99999900  0.49999900  1.0
  Cr  Cr2  1  0.99999800  0.49999400  0.50000000  1.0
  Cr  Cr3  1  0.50000300  0.99999800  0.99999800  1.0
