# generated using pymatgen
data_HoNi
_symmetry_space_group_name_H-M   'P 1'
_cell_length_a   4.43308000
_cell_length_b   14.62301300
_cell_length_c   16.13516600
_cell_angle_alpha   90.00000000
_cell_angle_beta   90.00000000
_cell_angle_gamma   90.00000000
_symmetry_Int_Tables_number   1
_chemical_formula_structural   HoNi
_chemical_formula_sum   'Ho12 Ni12'
_cell_volume   1045.96191764
_cell_formula_units_Z   12
loop_
 _symmetry_equiv_pos_site_id
 _symmetry_equiv_pos_as_xyz
  1  'x, y, z'
loop_
 _atom_site_type_symbol
 _atom_site_label
 _atom_site_symmetry_multiplicity
 _atom_site_fract_x
 _atom_site_fract_y
 _atom_site_fract_z
 _atom_site_occupancy
  Ho  Ho0  1  0.25000000  0.97325100  0.34839700  1.0
  Ho  Ho1  1  0.25000000  0.52674900  0.84839700  1.0
  Ho  Ho2  1  0.75000000  0.02674900  0.65160300  1.0
  Ho  Ho3  1  0.75000000  0.47325100  0.15160300  1.0
  Ho  Ho4  1  0.25000000  0.27426800  0.87397300  1.0
  Ho  Ho5  1  0.25000000  0.22573200  0.37397300  1.0
  Ho  Ho6  1  0.75000000  0.72573200  0.12602700  1.0
  Ho  Ho7  1  0.75000000  0.77426800  0.62602700  1.0
  Ho  Ho8  1  0.25000000  0.39813200  0.64585400  1.0
  Ho  Ho9  1  0.25000000  0.10186800  0.14585400  1.0
  Ho  Ho10  1  0.75000000  0.60186800  0.35414600  1.0
  Ho  Ho11  1  0.75000000  0.89813200  0.85414600  1.0
  Ni  Ni12  1  0.25000000  0.60721000  0.05295200  1.0
  Ni  Ni13  1  0.25000000  0.89279000  0.55295200  1.0
  Ni  Ni14  1  0.75000000  0.39279000  0.94704800  1.0
  Ni  Ni15  1  0.75000000  0.10721000  0.44704800  1.0
  Ni  Ni16  1  0.25000000  0.74508400  0.30714900  1.0
  Ni  Ni17  1  0.25000000  0.75491600  0.80714900  1.0
  Ni  Ni18  1  0.75000000  0.25491600  0.69285100  1.0
  Ni  Ni19  1  0.75000000  0.24508400  0.19285100  1.0
  Ni  Ni20  1  0.25000000  0.04605800  0.79970900  1.0
  Ni  Ni21  1  0.25000000  0.45394200  0.29970900  1.0
  Ni  Ni22  1  0.75000000  0.95394200  0.20029100  1.0
  Ni  Ni23  1  0.75000000  0.54605800  0.70029100  1.0
