# generated using pymatgen
data_TbNi
_symmetry_space_group_name_H-M   'P 1'
_cell_length_a   3.70135000
_cell_length_b   4.26890500
_cell_length_c   5.43752357
_cell_angle_alpha   90.00000000
_cell_angle_beta   109.89835463
_cell_angle_gamma   90.00000000
_symmetry_Int_Tables_number   1
_chemical_formula_structural   TbNi
_chemical_formula_sum   'Tb2 Ni2'
_cell_volume   80.78733158
_cell_formula_units_Z   2
loop_
 _symmetry_equiv_pos_site_id
 _symmetry_equiv_pos_as_xyz
  1  'x, y, z'
loop_
 _atom_site_type_symbol
 _atom_site_label
 _atom_site_symmetry_multiplicity
 _atom_site_fract_x
 _atom_site_fract_y
 _atom_site_fract_z
 _atom_site_occupancy
  Tb  Tb0  1  0.86118600  0.75000000  0.72237200  1.0
  Tb  Tb1  1  0.13881400  0.25000000  0.27762800  1.0
  Ni  Ni2  1  0.57272900  0.75000000  0.14545800  1.0
  Ni  Ni3  1  0.42727100  0.25000000  0.85454200  1.0
