# generated using pymatgen
data_HoIr
_symmetry_space_group_name_H-M   'P 1'
_cell_length_a   4.26397200
_cell_length_b   8.90516400
_cell_length_c   9.46833571
_cell_angle_alpha   118.05119182
_cell_angle_beta   103.01288024
_cell_angle_gamma   89.99999998
_symmetry_Int_Tables_number   1
_chemical_formula_structural   HoIr
_chemical_formula_sum   'Ho4 Ir4'
_cell_volume   306.79017723
_cell_formula_units_Z   4
loop_
 _symmetry_equiv_pos_site_id
 _symmetry_equiv_pos_as_xyz
  1  'x, y, z'
loop_
 _atom_site_type_symbol
 _atom_site_label
 _atom_site_symmetry_multiplicity
 _atom_site_fract_x
 _atom_site_fract_y
 _atom_site_fract_z
 _atom_site_occupancy
  Ho  Ho0  1  0.79513100  0.29513100  0.59026200  1.0
  Ho  Ho1  1  1.00000000  0.73732000  1.00000000  1.0
  Ho  Ho2  1  0.20486900  0.70486900  0.40973800  1.0
  Ho  Ho3  1  1.00000000  0.26268000  1.00000000  1.0
  Ir  Ir4  1  0.64514500  0.39459200  0.29028900  1.0
  Ir  Ir5  1  0.35485500  0.60540800  0.70971100  1.0
  Ir  Ir6  1  0.35485600  0.10430300  0.70971200  1.0
  Ir  Ir7  1  0.64514400  0.89569700  0.29028800  1.0
