# generated using pymatgen
data_Tb3Ni
_symmetry_space_group_name_H-M   'P 1'
_cell_length_a   3.93510600
_cell_length_b   4.15404400
_cell_length_c   9.18715068
_cell_angle_alpha   103.06633638
_cell_angle_beta   102.36646052
_cell_angle_gamma   90.00000001
_symmetry_Int_Tables_number   1
_chemical_formula_structural   Tb3Ni
_chemical_formula_sum   'Tb3 Ni1'
_cell_volume   142.71104662
_cell_formula_units_Z   1
loop_
 _symmetry_equiv_pos_site_id
 _symmetry_equiv_pos_as_xyz
  1  'x, y, z'
loop_
 _atom_site_type_symbol
 _atom_site_label
 _atom_site_symmetry_multiplicity
 _atom_site_fract_x
 _atom_site_fract_y
 _atom_site_fract_z
 _atom_site_occupancy
  Tb  Tb0  1  0.68499800  0.18499800  0.36999600  1.0
  Tb  Tb1  1  0.31821600  0.81821600  0.63643200  1.0
  Tb  Tb2  1  0.99926700  0.99926700  0.99853400  1.0
  Ni  Ni3  1  0.43241000  0.43241000  0.86482000  1.0
