# generated using pymatgen
data_Nd
_symmetry_space_group_name_H-M   'P 1'
_cell_length_a   4.09805300
_cell_length_b   4.14066600
_cell_length_c   20.89293100
_cell_angle_alpha   90.00000000
_cell_angle_beta   90.00000000
_cell_angle_gamma   90.00000000
_symmetry_Int_Tables_number   1
_chemical_formula_structural   Nd
_chemical_formula_sum   Nd4
_cell_volume   354.52522480
_cell_formula_units_Z   4
loop_
 _symmetry_equiv_pos_site_id
 _symmetry_equiv_pos_as_xyz
  1  'x, y, z'
loop_
 _atom_site_type_symbol
 _atom_site_label
 _atom_site_symmetry_multiplicity
 _atom_site_fract_x
 _atom_site_fract_y
 _atom_site_fract_z
 _atom_site_occupancy
  Nd  Nd0  1  0.25000000  0.22725700  0.11824100  1.0
  Nd  Nd1  1  0.75000000  0.72725700  0.38175900  1.0
  Nd  Nd2  1  0.25000000  0.27274300  0.61824100  1.0
  Nd  Nd3  1  0.75000000  0.77274300  0.88175900  1.0
