# generated using pymatgen
data_V
_symmetry_space_group_name_H-M   'P 1'
_cell_length_a   5.38220427
_cell_length_b   6.60980187
_cell_length_c   6.61021583
_cell_angle_alpha   84.24606191
_cell_angle_beta   77.45706064
_cell_angle_gamma   77.44913390
_symmetry_Int_Tables_number   1
_chemical_formula_structural   V
_chemical_formula_sum   V2
_cell_volume   223.71483959
_cell_formula_units_Z   2
loop_
 _symmetry_equiv_pos_site_id
 _symmetry_equiv_pos_as_xyz
  1  'x, y, z'
loop_
 _atom_site_type_symbol
 _atom_site_label
 _atom_site_symmetry_multiplicity
 _atom_site_fract_x
 _atom_site_fract_y
 _atom_site_fract_z
 _atom_site_occupancy
  V  V0  1  0.24990600  0.90558300  0.09446850  1.0
  V  V1  1  0.75006800  0.09439700  0.90550100  1.0
