# generated using pymatgen
data_MnMo
_symmetry_space_group_name_H-M   'P 1'
_cell_length_a   5.60984294
_cell_length_b   5.77462000
_cell_length_c   8.07235025
_cell_angle_alpha   90.00127922
_cell_angle_beta   90.72030227
_cell_angle_gamma   89.99994473
_symmetry_Int_Tables_number   1
_chemical_formula_structural   MnMo
_chemical_formula_sum   'Mn2 Mo2'
_cell_volume   261.48079090
_cell_formula_units_Z   2
loop_
 _symmetry_equiv_pos_site_id
 _symmetry_equiv_pos_as_xyz
  1  'x, y, z'
loop_
 _atom_site_type_symbol
 _atom_site_label
 _atom_site_symmetry_multiplicity
 _atom_site_fract_x
 _atom_site_fract_y
 _atom_site_fract_z
 _atom_site_occupancy
  Mn  Mn0  1  0.99967600  0.49761900  0.00012800  1.0
  Mn  Mn1  1  0.49966900  0.00233700  0.50013600  1.0
  Mo  Mo2  1  0.49942100  0.00207200  0.00107500  1.0
  Mo  Mo3  1  0.99941300  0.49791200  0.50106700  1.0
