# generated using pymatgen
data_Ni
_symmetry_space_group_name_H-M   'P 1'
_cell_length_a   5.49241426
_cell_length_b   5.49241426
_cell_length_c   5.92270291
_cell_angle_alpha   91.46943437
_cell_angle_beta   116.84141278
_cell_angle_gamma   119.04205406
_symmetry_Int_Tables_number   1
_chemical_formula_structural   Ni
_chemical_formula_sum   Ni4
_cell_volume   132.33067262
_cell_formula_units_Z   4
loop_
 _symmetry_equiv_pos_site_id
 _symmetry_equiv_pos_as_xyz
  1  'x, y, z'
loop_
 _atom_site_type_symbol
 _atom_site_label
 _atom_site_symmetry_multiplicity
 _atom_site_fract_x
 _atom_site_fract_y
 _atom_site_fract_z
 _atom_site_occupancy
  Ni  Ni0  1  0.49501400  0.81818600  0.50007700  1.0
  Ni  Ni1  1  0.17090700  0.17088600  0.50920600  1.0
  Ni  Ni2  1  0.18189100  0.00506300  0.00007700  1.0
  Ni  Ni3  1  0.83832000  0.33829900  0.00920600  1.0
