# generated using pymatgen
data_CrFe
_symmetry_space_group_name_H-M   'P 1'
_cell_length_a   6.01279000
_cell_length_b   6.01995801
_cell_length_c   6.01995801
_cell_angle_alpha   60.20234152
_cell_angle_beta   60.03938047
_cell_angle_gamma   60.03938047
_symmetry_Int_Tables_number   1
_chemical_formula_structural   CrFe
_chemical_formula_sum   'Cr2 Fe2'
_cell_volume   154.40690909
_cell_formula_units_Z   2
loop_
 _symmetry_equiv_pos_site_id
 _symmetry_equiv_pos_as_xyz
  1  'x, y, z'
loop_
 _atom_site_type_symbol
 _atom_site_label
 _atom_site_symmetry_multiplicity
 _atom_site_fract_x
 _atom_site_fract_y
 _atom_site_fract_z
 _atom_site_occupancy
  Cr  Cr0  1  0.50000000  0.50000000  0.50000000  1.0
  Cr  Cr1  1  0.50000000  1.00000000  1.00000000  1.0
  Fe  Fe2  1  0.00000000  1.00000000  0.50000000  1.0
  Fe  Fe3  1  0.50000000  1.00000000  0.50000000  1.0
