# generated using pymatgen
data_Er2Ni
_symmetry_space_group_name_H-M   'P 1'
_cell_length_a   3.78097470
_cell_length_b   5.76704066
_cell_length_c   6.63639079
_cell_angle_alpha   115.75355998
_cell_angle_beta   106.55088151
_cell_angle_gamma   89.99999526
_symmetry_Int_Tables_number   1
_chemical_formula_structural   Er2Ni
_chemical_formula_sum   'Er2 Ni1'
_cell_volume   123.64253899
_cell_formula_units_Z   1
loop_
 _symmetry_equiv_pos_site_id
 _symmetry_equiv_pos_as_xyz
  1  'x, y, z'
loop_
 _atom_site_type_symbol
 _atom_site_label
 _atom_site_symmetry_multiplicity
 _atom_site_fract_x
 _atom_site_fract_y
 _atom_site_fract_z
 _atom_site_occupancy
  Er  Er0  1  0.70338200  0.20338200  0.40676400  1.0
  Er  Er1  1  0.29661800  0.79661800  0.59323500  1.0
  Ni  Ni2  1  0.00000000  0.00000000  0.00000000  1.0
