# generated using pymatgen
data_Fe
_symmetry_space_group_name_H-M   'P 1'
_cell_length_a   5.06252000
_cell_length_b   5.06252093
_cell_length_c   8.05505500
_cell_angle_alpha   90.00000000
_cell_angle_beta   90.00000000
_cell_angle_gamma   119.99999393
_symmetry_Int_Tables_number   1
_chemical_formula_structural   Fe
_chemical_formula_sum   Fe6
_cell_volume   178.78568886
_cell_formula_units_Z   6
loop_
 _symmetry_equiv_pos_site_id
 _symmetry_equiv_pos_as_xyz
  1  'x, y, z'
loop_
 _atom_site_type_symbol
 _atom_site_label
 _atom_site_symmetry_multiplicity
 _atom_site_fract_x
 _atom_site_fract_y
 _atom_site_fract_z
 _atom_site_occupancy
  Fe  Fe0  1  0.50000000  0.50000000  0.75064700  1.0
  Fe  Fe1  1  0.50000000  0.00000000  0.75064700  1.0
  Fe  Fe2  1  1.00000000  0.50000000  0.75064700  1.0
  Fe  Fe3  1  0.50000000  0.50000000  0.24935300  1.0
  Fe  Fe4  1  0.50000000  0.00000000  0.24935300  1.0
  Fe  Fe5  1  1.00000000  0.50000000  0.24935300  1.0
