# generated using pymatgen
data_CoW
_symmetry_space_group_name_H-M   'P 1'
_cell_length_a   4.70136494
_cell_length_b   5.06170178
_cell_length_c   5.76685002
_cell_angle_alpha   90.00518470
_cell_angle_beta   90.00444228
_cell_angle_gamma   89.23796235
_symmetry_Int_Tables_number   1
_chemical_formula_structural   CoW
_chemical_formula_sum   'Co2 W2'
_cell_volume   137.22105676
_cell_formula_units_Z   2
loop_
 _symmetry_equiv_pos_site_id
 _symmetry_equiv_pos_as_xyz
  1  'x, y, z'
loop_
 _atom_site_type_symbol
 _atom_site_label
 _atom_site_symmetry_multiplicity
 _atom_site_fract_x
 _atom_site_fract_y
 _atom_site_fract_z
 _atom_site_occupancy
  Co  Co0  1  0.49967900  0.75031400  0.65795900  1.0
  Co  Co1  1  0.49969000  0.25026700  0.34179900  1.0
  W  W2  1  0.00006200  0.74999700  0.17255500  1.0
  W  W3  1  0.00007100  0.24998900  0.82741900  1.0
