# generated using pymatgen
data_Fe
_symmetry_space_group_name_H-M   'P 1'
_cell_length_a   5.64679900
_cell_length_b   6.52039600
_cell_length_c   7.94089220
_cell_angle_alpha   91.09275582
_cell_angle_beta   90.00000000
_cell_angle_gamma   90.00000000
_symmetry_Int_Tables_number   1
_chemical_formula_structural   Fe
_chemical_formula_sum   Fe12
_cell_volume   292.32543870
_cell_formula_units_Z   12
loop_
 _symmetry_equiv_pos_site_id
 _symmetry_equiv_pos_as_xyz
  1  'x, y, z'
loop_
 _atom_site_type_symbol
 _atom_site_label
 _atom_site_symmetry_multiplicity
 _atom_site_fract_x
 _atom_site_fract_y
 _atom_site_fract_z
 _atom_site_occupancy
  Fe  Fe0  1  0.27427600  0.45910700  0.92358200  1.0
  Fe  Fe1  1  0.77427600  0.54089300  0.57641800  1.0
  Fe  Fe2  1  0.72572400  0.54089300  0.07641800  1.0
  Fe  Fe3  1  0.22572400  0.45910700  0.42358200  1.0
  Fe  Fe4  1  0.70808100  0.17360700  0.71073600  1.0
  Fe  Fe5  1  0.20808100  0.82639300  0.78926400  1.0
  Fe  Fe6  1  0.29191900  0.82639300  0.28926400  1.0
  Fe  Fe7  1  0.79191900  0.17360700  0.21073600  1.0
  Fe  Fe8  1  0.30120200  0.09142100  0.56202700  1.0
  Fe  Fe9  1  0.80120200  0.90857900  0.93797300  1.0
  Fe  Fe10  1  0.69879800  0.90857900  0.43797300  1.0
  Fe  Fe11  1  0.19879800  0.09142100  0.06202700  1.0
