# generated using pymatgen
data_NbCr
_symmetry_space_group_name_H-M   'P 1'
_cell_length_a   3.09895800
_cell_length_b   4.69551113
_cell_length_c   4.69552268
_cell_angle_alpha   91.12281845
_cell_angle_beta   90.00000018
_cell_angle_gamma   89.99996931
_symmetry_Int_Tables_number   1
_chemical_formula_structural   NbCr
_chemical_formula_sum   'Nb1 Cr1'
_cell_volume   68.31233170
_cell_formula_units_Z   1
loop_
 _symmetry_equiv_pos_site_id
 _symmetry_equiv_pos_as_xyz
  1  'x, y, z'
loop_
 _atom_site_type_symbol
 _atom_site_label
 _atom_site_symmetry_multiplicity
 _atom_site_fract_x
 _atom_site_fract_y
 _atom_site_fract_z
 _atom_site_occupancy
  Cr  Cr0  1  0.50000375  0.50001050  0.50000350  1.0
  Nb  Nb1  1  0.99999875  0.99999775  0.99999925  1.0
