# generated using pymatgen
data_Mn
_symmetry_space_group_name_H-M   'P 1'
_cell_length_a   8.49554053
_cell_length_b   8.49554053
_cell_length_c   26.16167569
_cell_angle_alpha   90.00000000
_cell_angle_beta   90.00000000
_cell_angle_gamma   90.00000000
_symmetry_Int_Tables_number   1
_chemical_formula_structural   Mn
_chemical_formula_sum   Mn64
_cell_volume   1888.19824634
_cell_formula_units_Z   64
loop_
 _symmetry_equiv_pos_site_id
 _symmetry_equiv_pos_as_xyz
  1  'x, y, z'
loop_
 _atom_site_type_symbol
 _atom_site_label
 _atom_site_symmetry_multiplicity
 _atom_site_fract_x
 _atom_site_fract_y
 _atom_site_fract_z
 _atom_site_occupancy
  Mn  Mn0  1  0.99806501  0.24833118  0.45402454  1.0
  Mn  Mn1  1  0.99059022  0.25158474  0.12613671  1.0
  Mn  Mn2  1  0.99014271  0.23482868  0.79156406  1.0
  Mn  Mn3  1  0.12422712  0.86787966  0.08274968  1.0
  Mn  Mn4  1  0.13212034  0.87577288  0.41725032  1.0
  Mn  Mn5  1  0.12936193  0.87063807  0.75000000  1.0
  Mn  Mn6  1  0.12536203  0.12536203  0.00000000  1.0
  Mn  Mn7  1  0.12576058  0.62309169  0.50087319  1.0
  Mn  Mn8  1  0.12659466  0.61957131  0.16384179  1.0
  Mn  Mn9  1  0.12294096  0.62008754  0.83057531  1.0
  Mn  Mn10  1  0.12309169  0.37423942  0.25087319  1.0
  Mn  Mn11  1  0.12008754  0.37705904  0.58057531  1.0
  Mn  Mn12  1  0.11957131  0.37340534  0.91384179  1.0
  Mn  Mn13  1  0.26517132  0.49014271  0.04156406  1.0
  Mn  Mn14  1  0.24841526  0.49059022  0.37613671  1.0
  Mn  Mn15  1  0.25166882  0.49806501  0.70402454  1.0
  Mn  Mn16  1  0.24833118  0.99806501  0.54597546  1.0
  Mn  Mn17  1  0.23482868  0.99014271  0.20843594  1.0
  Mn  Mn18  1  0.25158474  0.99059022  0.87386329  1.0
  Mn  Mn19  1  0.38042869  0.87340534  0.33615821  1.0
  Mn  Mn20  1  0.37991246  0.87705904  0.66942469  1.0
  Mn  Mn21  1  0.37690831  0.87423942  0.99912681  1.0
  Mn  Mn22  1  0.37340534  0.11957131  0.08615821  1.0
  Mn  Mn23  1  0.37705904  0.12008754  0.41942469  1.0
  Mn  Mn24  1  0.37463797  0.62536203  0.25000000  1.0
  Mn  Mn25  1  0.37423942  0.12309169  0.74912681  1.0
  Mn  Mn26  1  0.37063807  0.37063807  0.50000000  1.0
  Mn  Mn27  1  0.37577288  0.36787966  0.16725032  1.0
  Mn  Mn28  1  0.36787966  0.37577288  0.83274968  1.0
  Mn  Mn29  1  0.50940978  0.75158474  0.12386329  1.0
  Mn  Mn30  1  0.50985729  0.73482868  0.45843594  1.0
  Mn  Mn31  1  0.50193499  0.74833118  0.79597546  1.0
  Mn  Mn32  1  0.49806501  0.25166882  0.29597546  1.0
  Mn  Mn33  1  0.49059022  0.24841526  0.62386329  1.0
  Mn  Mn34  1  0.49014271  0.26517132  0.95843594  1.0
  Mn  Mn35  1  0.63212034  0.62422712  0.33274968  1.0
  Mn  Mn36  1  0.62422712  0.63212034  0.66725032  1.0
  Mn  Mn37  1  0.62936193  0.62936193  0.00000000  1.0
  Mn  Mn38  1  0.62576058  0.87690831  0.24912681  1.0
  Mn  Mn39  1  0.62536203  0.37463797  0.75000000  1.0
  Mn  Mn40  1  0.62659466  0.88042869  0.58615821  1.0
  Mn  Mn41  1  0.62294096  0.87991246  0.91942469  1.0
  Mn  Mn42  1  0.62008754  0.12294096  0.16942469  1.0
  Mn  Mn43  1  0.62309169  0.12576058  0.49912681  1.0
  Mn  Mn44  1  0.61957131  0.12659466  0.83615821  1.0
  Mn  Mn45  1  0.74841526  0.00940978  0.37386329  1.0
  Mn  Mn46  1  0.76517132  0.00985729  0.70843594  1.0
  Mn  Mn47  1  0.75166882  0.00193499  0.04597546  1.0
  Mn  Mn48  1  0.74833118  0.50193499  0.20402454  1.0
  Mn  Mn49  1  0.73482868  0.50985729  0.54156406  1.0
  Mn  Mn50  1  0.75158474  0.50940978  0.87613671  1.0
  Mn  Mn51  1  0.87991246  0.62294096  0.08057531  1.0
  Mn  Mn52  1  0.88042869  0.62659466  0.41384179  1.0
  Mn  Mn53  1  0.87690831  0.62576058  0.75087319  1.0
  Mn  Mn54  1  0.87423942  0.37690831  0.00087319  1.0
  Mn  Mn55  1  0.87705904  0.37991246  0.33057531  1.0
  Mn  Mn56  1  0.87340534  0.38042869  0.66384179  1.0
  Mn  Mn57  1  0.87463797  0.87463797  0.50000000  1.0
  Mn  Mn58  1  0.87063807  0.12936193  0.25000000  1.0
  Mn  Mn59  1  0.87577288  0.13212034  0.58274968  1.0
  Mn  Mn60  1  0.86787966  0.12422712  0.91725032  1.0
  Mn  Mn61  1  0.00985729  0.76517132  0.29156406  1.0
  Mn  Mn62  1  0.00940978  0.74841526  0.62613671  1.0
  Mn  Mn63  1  0.00193499  0.75166882  0.95402454  1.0
