# generated using pymatgen
data_Mn(CrS2)2
_symmetry_space_group_name_H-M   'P 1'
_cell_length_a   6.52309027
_cell_length_b   6.52309027
_cell_length_c   5.71428743
_cell_angle_alpha   65.30486336
_cell_angle_beta   65.30486336
_cell_angle_gamma   29.84794937
_symmetry_Int_Tables_number   1
_chemical_formula_structural   Mn(CrS2)2
_chemical_formula_sum   'Mn1 Cr2 S4'
_cell_volume   109.11782553
_cell_formula_units_Z   1
loop_
 _symmetry_equiv_pos_site_id
 _symmetry_equiv_pos_as_xyz
  1  'x, y, z'
loop_
 _atom_site_type_symbol
 _atom_site_label
 _atom_site_symmetry_multiplicity
 _atom_site_fract_x
 _atom_site_fract_y
 _atom_site_fract_z
 _atom_site_occupancy
  Mn  Mn0  1  0.00000000  0.00000000  0.00000000  1
  Cr  Cr1  1  0.25630500  0.25630500  0.68789000  1
  Cr  Cr2  1  0.74369500  0.74369500  0.31211000  1
  S  S3  1  0.35427000  0.35427000  0.98578100  1
  S  S4  1  0.64573000  0.64573000  0.01421900  1
  S  S5  1  0.11721100  0.11721100  0.53822000  1
  S  S6  1  0.88278900  0.88278900  0.46178000  1
