# generated using pymatgen
data_TbFe2
_symmetry_space_group_name_H-M   'P 1'
_cell_length_a   3.95318800
_cell_length_b   3.95318800
_cell_length_c   6.03775159
_cell_angle_alpha   109.10937599
_cell_angle_beta   109.10937600
_cell_angle_gamma   89.99999998
_symmetry_Int_Tables_number   1
_chemical_formula_structural   TbFe2
_chemical_formula_sum   'Tb1 Fe2'
_cell_volume   83.63459669
_cell_formula_units_Z   1
loop_
 _symmetry_equiv_pos_site_id
 _symmetry_equiv_pos_as_xyz
  1  'x, y, z'
loop_
 _atom_site_type_symbol
 _atom_site_label
 _atom_site_symmetry_multiplicity
 _atom_site_fract_x
 _atom_site_fract_y
 _atom_site_fract_z
 _atom_site_occupancy
  Tb  Tb0  1  0.00000000  0.00000000  0.00000000  1.0
  Fe  Fe1  1  0.75000000  0.25000000  0.50000000  1.0
  Fe  Fe2  1  0.25000000  0.75000000  0.50000000  1.0
