# generated using pymatgen
data_Co
_symmetry_space_group_name_H-M   'P 1'
_cell_length_a   4.82757849
_cell_length_b   6.06437115
_cell_length_c   10.39626470
_cell_angle_alpha   89.80172085
_cell_angle_beta   89.91920605
_cell_angle_gamma   89.95943646
_symmetry_Int_Tables_number   1
_chemical_formula_structural   Co
_chemical_formula_sum   Co8
_cell_volume   304.36121244
_cell_formula_units_Z   8
loop_
 _symmetry_equiv_pos_site_id
 _symmetry_equiv_pos_as_xyz
  1  'x, y, z'
loop_
 _atom_site_type_symbol
 _atom_site_label
 _atom_site_symmetry_multiplicity
 _atom_site_fract_x
 _atom_site_fract_y
 _atom_site_fract_z
 _atom_site_occupancy
  Co  Co0  1  0.00000200  0.49999900  0.00000000  1.0
  Co  Co1  1  0.50000300  0.00000000  0.49999900  1.0
  Co  Co2  1  0.50462900  0.25136300  0.77473100  1.0
  Co  Co3  1  0.99333600  0.25076300  0.27474100  1.0
  Co  Co4  1  0.49536600  0.74863500  0.22527500  1.0
  Co  Co5  1  0.00675600  0.74922000  0.72523900  1.0
  Co  Co6  1  0.50000300  0.49999700  0.49999500  1.0
  Co  Co7  1  0.99999600  0.00000300  0.99999800  1.0
