# generated using pymatgen
data_Tm
_symmetry_space_group_name_H-M   'P 1'
_cell_length_a   6.01040774
_cell_length_b   6.01040774
_cell_length_c   21.79902628
_cell_angle_alpha   89.64348447
_cell_angle_beta   89.64348447
_cell_angle_gamma   61.14486593
_symmetry_Int_Tables_number   1
_chemical_formula_structural   Tm
_chemical_formula_sum   Tm12
_cell_volume   689.69922248
_cell_formula_units_Z   12
loop_
 _symmetry_equiv_pos_site_id
 _symmetry_equiv_pos_as_xyz
  1  'x, y, z'
loop_
 _atom_site_type_symbol
 _atom_site_label
 _atom_site_symmetry_multiplicity
 _atom_site_fract_x
 _atom_site_fract_y
 _atom_site_fract_z
 _atom_site_occupancy
  Tm  Tm0  1  0.78118900  0.55684600  0.19427200  1.0
  Tm  Tm1  1  0.55684600  0.78118900  0.69427200  1.0
  Tm  Tm2  1  0.78429100  0.54473800  0.05229900  1.0
  Tm  Tm3  1  0.54473800  0.78429100  0.55229900  1.0
  Tm  Tm4  1  0.12250700  0.88590400  0.07062400  1.0
  Tm  Tm5  1  0.88590400  0.12250700  0.57062400  1.0
  Tm  Tm6  1  0.11409600  0.87749300  0.42937600  1.0
  Tm  Tm7  1  0.87749300  0.11409600  0.92937600  1.0
  Tm  Tm8  1  0.45526200  0.21570900  0.44770100  1.0
  Tm  Tm9  1  0.21570900  0.45526200  0.94770100  1.0
  Tm  Tm10  1  0.44315400  0.21881100  0.30572800  1.0
  Tm  Tm11  1  0.21881100  0.44315400  0.80572800  1.0
