# generated using pymatgen
data_FeCu
_symmetry_space_group_name_H-M   'P 1'
_cell_length_a   3.06531800
_cell_length_b   3.06531864
_cell_length_c   11.54583800
_cell_angle_alpha   90.00000000
_cell_angle_beta   90.00000000
_cell_angle_gamma   119.99999307
_symmetry_Int_Tables_number   1
_chemical_formula_structural   FeCu
_chemical_formula_sum   'Fe2 Cu2'
_cell_volume   93.95227114
_cell_formula_units_Z   2
loop_
 _symmetry_equiv_pos_site_id
 _symmetry_equiv_pos_as_xyz
  1  'x, y, z'
loop_
 _atom_site_type_symbol
 _atom_site_label
 _atom_site_symmetry_multiplicity
 _atom_site_fract_x
 _atom_site_fract_y
 _atom_site_fract_z
 _atom_site_occupancy
  Fe  Fe0  1  0.00000000  0.00000000  0.50000000  1.0
  Fe  Fe1  1  0.00000000  0.00000000  0.00000000  1.0
  Cu  Cu2  1  0.33333333  0.66666667  0.25000000  1.0
  Cu  Cu3  1  0.66666667  0.33333333  0.75000000  1.0
