# generated using pymatgen
data_GdCu2
_symmetry_space_group_name_H-M   'P 1'
_cell_length_a   4.35017200
_cell_length_b   5.54734347
_cell_length_c   5.54734347
_cell_angle_alpha   78.38646927
_cell_angle_beta   66.91507657
_cell_angle_gamma   66.91507658
_symmetry_Int_Tables_number   1
_chemical_formula_structural   GdCu2
_chemical_formula_sum   'Gd2 Cu4'
_cell_volume   113.10813971
_cell_formula_units_Z   2
loop_
 _symmetry_equiv_pos_site_id
 _symmetry_equiv_pos_as_xyz
  1  'x, y, z'
loop_
 _atom_site_type_symbol
 _atom_site_label
 _atom_site_symmetry_multiplicity
 _atom_site_fract_x
 _atom_site_fract_y
 _atom_site_fract_z
 _atom_site_occupancy
  Gd  Gd0  1  0.46217900  0.78782100  0.28782100  1.0
  Gd  Gd1  1  0.53782100  0.21217900  0.71217900  1.0
  Cu  Cu2  1  0.83500000  0.21578600  0.11421300  1.0
  Cu  Cu3  1  0.16500000  0.78421400  0.88578700  1.0
  Cu  Cu4  1  0.16499900  0.38578800  0.28421400  1.0
  Cu  Cu5  1  0.83500100  0.61421200  0.71578600  1.0
