# generated using pymatgen
data_Co
_symmetry_space_group_name_H-M   'P 1'
_cell_length_a   5.37997133
_cell_length_b   5.38282996
_cell_length_c   5.69856561
_cell_angle_alpha   72.08641277
_cell_angle_beta   80.99358032
_cell_angle_gamma   61.47627043
_symmetry_Int_Tables_number   1
_chemical_formula_structural   Co
_chemical_formula_sum   Co2
_cell_volume   137.95788711
_cell_formula_units_Z   2
loop_
 _symmetry_equiv_pos_site_id
 _symmetry_equiv_pos_as_xyz
  1  'x, y, z'
loop_
 _atom_site_type_symbol
 _atom_site_label
 _atom_site_symmetry_multiplicity
 _atom_site_fract_x
 _atom_site_fract_y
 _atom_site_fract_z
 _atom_site_occupancy
  Co  Co0  1  0.33460250  0.33571850  0.00023250  1.0
  Co  Co1  1  0.66540700  0.66424400  0.99976700  1.0
