# generated using pymatgen
data_ThMnAl
_symmetry_space_group_name_H-M   'P 1'
_cell_length_a   5.49194808
_cell_length_b   5.49194808
_cell_length_c   5.49194808
_cell_angle_alpha   119.02417441
_cell_angle_beta   119.00744238
_cell_angle_gamma   91.71329465
_symmetry_Int_Tables_number   1
_chemical_formula_structural   ThMnAl
_chemical_formula_sum   'Th2 Mn2 Al2'
_cell_volume   118.81388764
_cell_formula_units_Z   2
loop_
 _symmetry_equiv_pos_site_id
 _symmetry_equiv_pos_as_xyz
  1  'x, y, z'
loop_
 _atom_site_type_symbol
 _atom_site_label
 _atom_site_symmetry_multiplicity
 _atom_site_fract_x
 _atom_site_fract_y
 _atom_site_fract_z
 _atom_site_occupancy
  Th  Th0  1  0.13524100  0.88524100  0.25000000  1
  Th  Th1  1  0.86475900  0.11475900  0.75000000  1
  Mn  Mn2  1  0.50000000  0.00000000  0.00000000  1
  Mn  Mn3  1  0.50000000  0.50000000  0.50000000  1
  Al  Al4  1  0.00000000  0.50000000  0.50000000  1
  Al  Al5  1  0.50000000  0.50000000  0.00000000  1
