# generated using pymatgen
data_Fe12PbO19
_symmetry_space_group_name_H-M   'P 1'
_cell_length_a   6.01766486
_cell_length_b   6.01766486
_cell_length_c   23.30012600
_cell_angle_alpha   90.00000000
_cell_angle_beta   90.00000000
_cell_angle_gamma   119.95033139
_symmetry_Int_Tables_number   1
_chemical_formula_structural   Fe12PbO19
_chemical_formula_sum   'Fe24 Pb2 O38'
_cell_volume   731.07517922
_cell_formula_units_Z   2
loop_
 _symmetry_equiv_pos_site_id
 _symmetry_equiv_pos_as_xyz
  1  'x, y, z'
loop_
 _atom_site_type_symbol
 _atom_site_label
 _atom_site_symmetry_multiplicity
 _atom_site_fract_x
 _atom_site_fract_y
 _atom_site_fract_z
 _atom_site_occupancy
  Fe  Fe0  1  0.00000000  0.00000000  0.00000000  1
  Fe  Fe1  1  0.00000000  0.00000000  0.50000000  1
  Fe  Fe2  1  0.00044200  0.99955800  0.75000000  1
  Fe  Fe3  1  0.99955800  0.00044200  0.25000000  1
  Fe  Fe4  1  0.66666000  0.33334000  0.97210500  1
  Fe  Fe5  1  0.33334000  0.66666000  0.02789500  1
  Fe  Fe6  1  0.33334000  0.66666000  0.47210500  1
  Fe  Fe7  1  0.66666000  0.33334000  0.52789500  1
  Fe  Fe8  1  0.66670300  0.33329700  0.80912300  1
  Fe  Fe9  1  0.33329700  0.66670300  0.19087700  1
  Fe  Fe10  1  0.33329700  0.66670300  0.30912300  1
  Fe  Fe11  1  0.66670300  0.33329700  0.69087700  1
  Fe  Fe12  1  0.33568700  0.16760600  0.10966400  1
  Fe  Fe13  1  0.83222900  0.16777100  0.10970300  1
  Fe  Fe14  1  0.83239400  0.66431300  0.10966400  1
  Fe  Fe15  1  0.66431300  0.83239400  0.89033600  1
  Fe  Fe16  1  0.16777100  0.83222900  0.89029700  1
  Fe  Fe17  1  0.16760600  0.33568700  0.89033600  1
  Fe  Fe18  1  0.66431300  0.83239400  0.60966400  1
  Fe  Fe19  1  0.16777100  0.83222900  0.60970300  1
  Fe  Fe20  1  0.16760600  0.33568700  0.60966400  1
  Fe  Fe21  1  0.33568700  0.16760600  0.39033600  1
  Fe  Fe22  1  0.83222900  0.16777100  0.39029700  1
  Fe  Fe23  1  0.83239400  0.66431300  0.39033600  1
  Pb  Pb24  1  0.66317800  0.33682200  0.25000000  1
  Pb  Pb25  1  0.33682200  0.66317800  0.75000000  1
  O  O26  1  0.99993700  0.00006300  0.84710100  1
  O  O27  1  0.00006300  0.99993700  0.15289900  1
  O  O28  1  0.00006300  0.99993700  0.34710100  1
  O  O29  1  0.99993700  0.00006300  0.65289900  1
  O  O30  1  0.66681500  0.33318500  0.05508400  1
  O  O31  1  0.33318500  0.66681500  0.94491600  1
  O  O32  1  0.33318500  0.66681500  0.55508400  1
  O  O33  1  0.66681500  0.33318500  0.44491600  1
  O  O34  1  0.36747100  0.18587500  0.75000000  1
  O  O35  1  0.81650500  0.18349500  0.75000000  1
  O  O36  1  0.81412500  0.63252900  0.75000000  1
  O  O37  1  0.63252900  0.81412500  0.25000000  1
  O  O38  1  0.18349500  0.81650500  0.25000000  1
  O  O39  1  0.18587500  0.36747100  0.25000000  1
  O  O40  1  0.31042600  0.15539300  0.94658100  1
  O  O41  1  0.84486100  0.15513900  0.94654200  1
  O  O42  1  0.84460700  0.68957400  0.94658100  1
  O  O43  1  0.68957400  0.84460700  0.05341900  1
  O  O44  1  0.15513900  0.84486100  0.05345800  1
  O  O45  1  0.15539300  0.31042600  0.05341900  1
  O  O46  1  0.68957400  0.84460700  0.44658100  1
  O  O47  1  0.15513900  0.84486100  0.44654200  1
  O  O48  1  0.15539300  0.31042600  0.44658100  1
  O  O49  1  0.31042600  0.15539300  0.55341900  1
  O  O50  1  0.84486100  0.15513900  0.55345800  1
  O  O51  1  0.84460700  0.68957400  0.55341900  1
  O  O52  1  0.49386800  0.50613200  0.84886800  1
  O  O53  1  0.49393400  0.98806200  0.84886600  1
  O  O54  1  0.01193800  0.50606600  0.84886600  1
  O  O55  1  0.50613200  0.49386800  0.15113200  1
  O  O56  1  0.50606600  0.01193800  0.15113400  1
  O  O57  1  0.98806200  0.49393400  0.15113400  1
  O  O58  1  0.50613200  0.49386800  0.34886800  1
  O  O59  1  0.50606600  0.01193800  0.34886600  1
  O  O60  1  0.98806200  0.49393400  0.34886600  1
  O  O61  1  0.49386800  0.50613200  0.65113200  1
  O  O62  1  0.49393400  0.98806200  0.65113400  1
  O  O63  1  0.01193800  0.50606600  0.65113400  1
