# generated using pymatgen
data_Gd
_symmetry_space_group_name_H-M   'P 1'
_cell_length_a   4.39482300
_cell_length_b   4.48713600
_cell_length_c   8.53098801
_cell_angle_alpha   74.75242348
_cell_angle_beta   90.00000000
_cell_angle_gamma   90.00000000
_symmetry_Int_Tables_number   1
_chemical_formula_structural   Gd
_chemical_formula_sum   Gd2
_cell_volume   162.31047520
_cell_formula_units_Z   2
loop_
 _symmetry_equiv_pos_site_id
 _symmetry_equiv_pos_as_xyz
  1  'x, y, z'
loop_
 _atom_site_type_symbol
 _atom_site_label
 _atom_site_symmetry_multiplicity
 _atom_site_fract_x
 _atom_site_fract_y
 _atom_site_fract_z
 _atom_site_occupancy
  Gd  Gd0  1  0.25000000  0.40212500  0.19575000  1.0
  Gd  Gd1  1  0.75000000  0.59787500  0.80425000  1.0
