# generated using pymatgen
data_MoCl5
_symmetry_space_group_name_H-M   'P 1'
_cell_length_a   12.38137400
_cell_length_b   9.72782000
_cell_length_c   12.96518072
_cell_angle_alpha   70.27715271
_cell_angle_beta   90.00000000
_cell_angle_gamma   90.00000000
_symmetry_Int_Tables_number   1
_chemical_formula_structural   MoCl5
_chemical_formula_sum   'Mo8 Cl40'
_cell_volume   1469.96716485
_cell_formula_units_Z   8
loop_
 _symmetry_equiv_pos_site_id
 _symmetry_equiv_pos_as_xyz
  1  'x, y, z'
loop_
 _atom_site_type_symbol
 _atom_site_label
 _atom_site_symmetry_multiplicity
 _atom_site_fract_x
 _atom_site_fract_y
 _atom_site_fract_z
 _atom_site_occupancy
  Mo  Mo0  1  0.62451600  0.69436800  0.79359400  1
  Mo  Mo1  1  0.12451600  0.30563200  0.70640600  1
  Mo  Mo2  1  0.37548400  0.30563200  0.20640600  1
  Mo  Mo3  1  0.87548400  0.69436800  0.29359400  1
  Mo  Mo4  1  0.62795000  0.11937400  0.68554200  1
  Mo  Mo5  1  0.12795000  0.88062600  0.81445800  1
  Mo  Mo6  1  0.37205000  0.88062600  0.31445800  1
  Mo  Mo7  1  0.87205000  0.11937400  0.18554200  1
  Cl  Cl8  1  0.73439500  0.52777800  0.91203700  1
  Cl  Cl9  1  0.23439500  0.47222200  0.58796300  1
  Cl  Cl10  1  0.26560500  0.47222200  0.08796300  1
  Cl  Cl11  1  0.76560500  0.52777800  0.41203700  1
  Cl  Cl12  1  0.51116300  0.53182000  0.75830100  1
  Cl  Cl13  1  0.01116300  0.46818000  0.74169900  1
  Cl  Cl14  1  0.48883700  0.46818000  0.24169900  1
  Cl  Cl15  1  0.98883700  0.53182000  0.25830100  1
  Cl  Cl16  1  0.98074400  0.90867300  0.16544900  1
  Cl  Cl17  1  0.48074400  0.09132700  0.33455100  1
  Cl  Cl18  1  0.01925600  0.09132700  0.83455100  1
  Cl  Cl19  1  0.51925600  0.90867300  0.66544900  1
  Cl  Cl20  1  0.76443300  0.09368600  0.05014600  1
  Cl  Cl21  1  0.26443300  0.90631400  0.44985400  1
  Cl  Cl22  1  0.23556700  0.90631400  0.94985400  1
  Cl  Cl23  1  0.73556700  0.09368600  0.55014600  1
  Cl  Cl24  1  0.97801500  0.09588500  0.33503400  1
  Cl  Cl25  1  0.47801500  0.90411500  0.16496600  1
  Cl  Cl26  1  0.02198500  0.90411500  0.66496600  1
  Cl  Cl27  1  0.52198500  0.09588500  0.83503400  1
  Cl  Cl28  1  0.98411700  0.28416300  0.06890700  1
  Cl  Cl29  1  0.48411700  0.71583700  0.43109300  1
  Cl  Cl30  1  0.01588300  0.71583700  0.93109300  1
  Cl  Cl31  1  0.51588300  0.28416300  0.56890700  1
  Cl  Cl32  1  0.75910300  0.28250300  0.22012800  1
  Cl  Cl33  1  0.25910300  0.71749700  0.27987200  1
  Cl  Cl34  1  0.24089700  0.71749700  0.77987200  1
  Cl  Cl35  1  0.74089700  0.28250300  0.72012800  1
  Cl  Cl36  1  0.76599600  0.90505800  0.31333500  1
  Cl  Cl37  1  0.26599600  0.09494200  0.18666500  1
  Cl  Cl38  1  0.23400400  0.09494200  0.68666500  1
  Cl  Cl39  1  0.73400400  0.90505800  0.81333500  1
  Cl  Cl40  1  0.76864600  0.71750600  0.14493800  1
  Cl  Cl41  1  0.26864600  0.28249400  0.35506200  1
  Cl  Cl42  1  0.23135400  0.28249400  0.85506200  1
  Cl  Cl43  1  0.73135400  0.71750600  0.64493800  1
  Cl  Cl44  1  0.98211700  0.72222100  0.42913000  1
  Cl  Cl45  1  0.48211700  0.27777900  0.07087000  1
  Cl  Cl46  1  0.01788300  0.27777900  0.57087000  1
  Cl  Cl47  1  0.51788300  0.72222100  0.92913000  1
