# generated using pymatgen
data_PrCo
_symmetry_space_group_name_H-M   'P 1'
_cell_length_a   4.02715200
_cell_length_b   4.02715205
_cell_length_c   17.83566400
_cell_angle_alpha   90.00000000
_cell_angle_beta   90.00000000
_cell_angle_gamma   119.99999955
_symmetry_Int_Tables_number   1
_chemical_formula_structural   PrCo
_chemical_formula_sum   'Pr4 Co4'
_cell_volume   250.50474954
_cell_formula_units_Z   4
loop_
 _symmetry_equiv_pos_site_id
 _symmetry_equiv_pos_as_xyz
  1  'x, y, z'
loop_
 _atom_site_type_symbol
 _atom_site_label
 _atom_site_symmetry_multiplicity
 _atom_site_fract_x
 _atom_site_fract_y
 _atom_site_fract_z
 _atom_site_occupancy
  Pr  Pr0  1  0.00000000  0.00000000  0.89484100  1.0
  Pr  Pr1  1  0.00000000  0.00000000  0.60515900  1.0
  Pr  Pr2  1  0.00000000  0.00000000  0.10515900  1.0
  Pr  Pr3  1  0.00000000  0.00000000  0.39484100  1.0
  Co  Co4  1  0.66666667  0.33333333  0.99904500  1.0
  Co  Co5  1  0.33333333  0.66666667  0.00095500  1.0
  Co  Co6  1  0.66666667  0.33333333  0.50095500  1.0
  Co  Co7  1  0.33333333  0.66666667  0.49904500  1.0
