# generated using pymatgen
data_GdFe
_symmetry_space_group_name_H-M   'P 1'
_cell_length_a   5.39494200
_cell_length_b   5.66608500
_cell_length_c   7.77632100
_cell_angle_alpha   90.00000000
_cell_angle_beta   90.00000000
_cell_angle_gamma   90.00000000
_symmetry_Int_Tables_number   1
_chemical_formula_structural   GdFe
_chemical_formula_sum   'Gd4 Fe4'
_cell_volume   237.70813514
_cell_formula_units_Z   4
loop_
 _symmetry_equiv_pos_site_id
 _symmetry_equiv_pos_as_xyz
  1  'x, y, z'
loop_
 _atom_site_type_symbol
 _atom_site_label
 _atom_site_symmetry_multiplicity
 _atom_site_fract_x
 _atom_site_fract_y
 _atom_site_fract_z
 _atom_site_occupancy
  Gd  Gd0  1  0.98342600  0.06579900  0.25000000  1.0
  Gd  Gd1  1  0.48342600  0.43420100  0.75000000  1.0
  Gd  Gd2  1  0.51657400  0.56579900  0.25000000  1.0
  Gd  Gd3  1  0.01657400  0.93420100  0.75000000  1.0
  Fe  Fe4  1  0.00000000  0.50000000  0.00000000  1.0
  Fe  Fe5  1  0.50000000  0.00000000  0.50000000  1.0
  Fe  Fe6  1  0.50000000  0.00000000  0.00000000  1.0
  Fe  Fe7  1  0.00000000  0.50000000  0.50000000  1.0
