# generated using pymatgen
data_DyMn
_symmetry_space_group_name_H-M   'P 1'
_cell_length_a   6.22788200
_cell_length_b   6.22788111
_cell_length_c   11.56132300
_cell_angle_alpha   90.00000000
_cell_angle_beta   90.00000000
_cell_angle_gamma   120.00000471
_symmetry_Int_Tables_number   1
_chemical_formula_structural   DyMn
_chemical_formula_sum   'Dy6 Mn6'
_cell_volume   388.34599818
_cell_formula_units_Z   6
loop_
 _symmetry_equiv_pos_site_id
 _symmetry_equiv_pos_as_xyz
  1  'x, y, z'
loop_
 _atom_site_type_symbol
 _atom_site_label
 _atom_site_symmetry_multiplicity
 _atom_site_fract_x
 _atom_site_fract_y
 _atom_site_fract_z
 _atom_site_occupancy
  Dy  Dy0  1  0.00000000  0.00000000  0.71725500  1.0
  Dy  Dy1  1  0.00000000  0.00000000  0.21725500  1.0
  Dy  Dy2  1  0.66666667  0.33333333  0.76099800  1.0
  Dy  Dy3  1  0.33333333  0.66666667  0.26099800  1.0
  Dy  Dy4  1  0.66666667  0.33333333  0.26099800  1.0
  Dy  Dy5  1  0.33333333  0.66666667  0.76099800  1.0
  Mn  Mn6  1  0.66646100  0.66646100  0.99213600  1.0
  Mn  Mn7  1  0.66646100  1.00000000  0.49213600  1.0
  Mn  Mn8  1  0.00000000  0.66646100  0.49213600  1.0
  Mn  Mn9  1  1.00000000  0.33353900  0.99213600  1.0
  Mn  Mn10  1  0.33353900  1.00000000  0.99213600  1.0
  Mn  Mn11  1  0.33353900  0.33353900  0.49213600  1.0
