# generated using pymatgen
data_HoCo3
_symmetry_space_group_name_H-M   'P 1'
_cell_length_a   4.95565528
_cell_length_b   4.95565528
_cell_length_c   8.59151368
_cell_angle_alpha   73.23756777
_cell_angle_beta   73.23756777
_cell_angle_gamma   60.00000963
_symmetry_Int_Tables_number   1
_chemical_formula_structural   HoCo3
_chemical_formula_sum   'Ho3 Co9'
_cell_volume   172.29680526
_cell_formula_units_Z   3
loop_
 _symmetry_equiv_pos_site_id
 _symmetry_equiv_pos_as_xyz
  1  'x, y, z'
loop_
 _atom_site_type_symbol
 _atom_site_label
 _atom_site_symmetry_multiplicity
 _atom_site_fract_x
 _atom_site_fract_y
 _atom_site_fract_z
 _atom_site_occupancy
  Ho  Ho0  1  0.00000000  0.00000000  0.00000000  1.0
  Ho  Ho1  1  0.86027200  0.86027200  0.41918400  1.0
  Ho  Ho2  1  0.13972800  0.13972800  0.58081600  1.0
  Co  Co3  1  0.50000000  0.50000000  0.50000000  1.0
  Co  Co4  1  0.66508300  0.66508300  0.00475100  1.0
  Co  Co5  1  0.33491700  0.33491700  0.99524900  1.0
  Co  Co6  1  0.92133100  0.41730000  0.24406900  1.0
  Co  Co7  1  0.41730000  0.41730000  0.24406900  1.0
  Co  Co8  1  0.41730000  0.92133100  0.24406900  1.0
  Co  Co9  1  0.07866900  0.58270000  0.75593100  1.0
  Co  Co10  1  0.58270000  0.58270000  0.75593100  1.0
  Co  Co11  1  0.58270000  0.07866900  0.75593100  1.0
