# generated using pymatgen
data_Ce2Co
_symmetry_space_group_name_H-M   'P 1'
_cell_length_a   5.94918800
_cell_length_b   5.94918800
_cell_length_c   15.20693300
_cell_angle_alpha   90.00000000
_cell_angle_beta   90.00000000
_cell_angle_gamma   90.00000000
_symmetry_Int_Tables_number   1
_chemical_formula_structural   Ce2Co
_chemical_formula_sum   'Ce4 Co2'
_cell_volume   538.21651401
_cell_formula_units_Z   2
loop_
 _symmetry_equiv_pos_site_id
 _symmetry_equiv_pos_as_xyz
  1  'x, y, z'
loop_
 _atom_site_type_symbol
 _atom_site_label
 _atom_site_symmetry_multiplicity
 _atom_site_fract_x
 _atom_site_fract_y
 _atom_site_fract_z
 _atom_site_occupancy
  Ce  Ce0  1  0.00000000  0.00000000  0.75568400  1.0
  Ce  Ce1  1  0.50000000  0.50000000  0.75568400  1.0
  Ce  Ce2  1  0.50000000  0.50000000  0.24431600  1.0
  Ce  Ce3  1  0.00000000  0.00000000  0.24431600  1.0
  Co  Co4  1  0.00000000  0.00000000  0.00000000  1.0
  Co  Co5  1  0.50000000  0.50000000  0.00000000  1.0
