# generated using pymatgen
data_Dy12Co7
_symmetry_space_group_name_H-M   'P 1'
_cell_length_a   8.27900700
_cell_length_b   9.19665099
_cell_length_c   11.21546200
_cell_angle_alpha   90.00000000
_cell_angle_beta   90.00000000
_cell_angle_gamma   102.07447800
_symmetry_Int_Tables_number   1
_chemical_formula_structural   Dy12Co7
_chemical_formula_sum   'Dy24 Co14'
_cell_volume   835.04357441
_cell_formula_units_Z   2
loop_
 _symmetry_equiv_pos_site_id
 _symmetry_equiv_pos_as_xyz
  1  'x, y, z'
loop_
 _atom_site_type_symbol
 _atom_site_label
 _atom_site_symmetry_multiplicity
 _atom_site_fract_x
 _atom_site_fract_y
 _atom_site_fract_z
 _atom_site_occupancy
  Dy  Dy0  1  0.15930000  0.65732400  0.84134400  1.0
  Dy  Dy1  1  0.69991900  0.85306300  0.49456000  1.0
  Dy  Dy2  1  0.65930000  0.15732400  0.65865600  1.0
  Dy  Dy3  1  0.57465500  0.82435600  0.80022700  1.0
  Dy  Dy4  1  0.35612600  0.58574600  0.57231100  1.0
  Dy  Dy5  1  0.57237300  0.30522200  0.92993400  1.0
  Dy  Dy6  1  0.07237300  0.80522200  0.57006600  1.0
  Dy  Dy7  1  0.22794400  0.46168400  0.29502000  1.0
  Dy  Dy8  1  0.92534500  0.67564400  0.30022700  1.0
  Dy  Dy9  1  0.92762700  0.19477800  0.42993400  1.0
  Dy  Dy10  1  0.64387400  0.41425400  0.42768900  1.0
  Dy  Dy11  1  0.30008100  0.14693700  0.50544000  1.0
  Dy  Dy12  1  0.34070000  0.84267600  0.34134400  1.0
  Dy  Dy13  1  0.19991900  0.35306300  0.00544000  1.0
  Dy  Dy14  1  0.42762700  0.69477800  0.07006600  1.0
  Dy  Dy15  1  0.85612600  0.08574600  0.92768900  1.0
  Dy  Dy16  1  0.72794400  0.96168400  0.20498000  1.0
  Dy  Dy17  1  0.27205600  0.03831600  0.79502000  1.0
  Dy  Dy18  1  0.77205600  0.53831600  0.70498000  1.0
  Dy  Dy19  1  0.80008100  0.64693700  0.99456000  1.0
  Dy  Dy20  1  0.07465500  0.32435600  0.69977300  1.0
  Dy  Dy21  1  0.42534500  0.17564400  0.19977300  1.0
  Dy  Dy22  1  0.84070000  0.34267600  0.15865600  1.0
  Dy  Dy23  1  0.14387400  0.91425400  0.07231100  1.0
  Co  Co24  1  0.00000000  0.50000000  0.50000000  1.0
  Co  Co25  1  0.05964600  0.96891400  0.32742300  1.0
  Co  Co26  1  0.05934600  0.15670500  0.19069800  1.0
  Co  Co27  1  0.44035400  0.53108600  0.82742300  1.0
  Co  Co28  1  0.59281700  0.09940500  0.40205600  1.0
  Co  Co29  1  0.09281700  0.59940500  0.09794400  1.0
  Co  Co30  1  0.94035400  0.03108600  0.67257700  1.0
  Co  Co31  1  0.40718300  0.90059500  0.59794400  1.0
  Co  Co32  1  0.50000000  0.00000000  1.00000000  1.0
  Co  Co33  1  0.44065400  0.34329500  0.69069800  1.0
  Co  Co34  1  0.55964600  0.46891400  0.17257700  1.0
  Co  Co35  1  0.55934600  0.65670500  0.30930200  1.0
  Co  Co36  1  0.90718300  0.40059500  0.90205600  1.0
  Co  Co37  1  0.94065400  0.84329500  0.80930200  1.0
