# generated using pymatgen
data_Cr
_symmetry_space_group_name_H-M   'P 1'
_cell_length_a   3.02097352
_cell_length_b   7.20601532
_cell_length_c   7.25085886
_cell_angle_alpha   87.80769492
_cell_angle_beta   78.03435918
_cell_angle_gamma   78.39495514
_symmetry_Int_Tables_number   1
_chemical_formula_structural   Cr
_chemical_formula_sum   Cr4
_cell_volume   151.25800031
_cell_formula_units_Z   4
loop_
 _symmetry_equiv_pos_site_id
 _symmetry_equiv_pos_as_xyz
  1  'x, y, z'
loop_
 _atom_site_type_symbol
 _atom_site_label
 _atom_site_symmetry_multiplicity
 _atom_site_fract_x
 _atom_site_fract_y
 _atom_site_fract_z
 _atom_site_occupancy
  Cr  Cr0  1  0.66939500  0.18371400  0.50921000  1.0
  Cr  Cr1  1  0.82965700  0.51070800  0.81600600  1.0
  Cr  Cr2  1  0.34826100  0.81438100  0.49014800  1.0
  Cr  Cr3  1  0.15957600  0.49175500  0.18224400  1.0
