# generated using pymatgen
data_HoFe
_symmetry_space_group_name_H-M   'P 1'
_cell_length_a   5.31299900
_cell_length_b   5.63902800
_cell_length_c   7.70051500
_cell_angle_alpha   90.00000000
_cell_angle_beta   90.00000000
_cell_angle_gamma   90.00000000
_symmetry_Int_Tables_number   1
_chemical_formula_structural   HoFe
_chemical_formula_sum   'Ho4 Fe4'
_cell_volume   230.70858544
_cell_formula_units_Z   4
loop_
 _symmetry_equiv_pos_site_id
 _symmetry_equiv_pos_as_xyz
  1  'x, y, z'
loop_
 _atom_site_type_symbol
 _atom_site_label
 _atom_site_symmetry_multiplicity
 _atom_site_fract_x
 _atom_site_fract_y
 _atom_site_fract_z
 _atom_site_occupancy
  Ho  Ho0  1  0.01968400  0.93029200  0.75000000  1.0
  Ho  Ho1  1  0.51968400  0.56970800  0.25000000  1.0
  Ho  Ho2  1  0.48031600  0.43029200  0.75000000  1.0
  Ho  Ho3  1  0.98031600  0.06970800  0.25000000  1.0
  Fe  Fe4  1  0.00000000  0.50000000  0.50000000  1.0
  Fe  Fe5  1  0.50000000  0.00000000  0.50000000  1.0
  Fe  Fe6  1  0.50000000  0.00000000  0.00000000  1.0
  Fe  Fe7  1  0.00000000  0.50000000  0.00000000  1.0
