# generated using pymatgen
data_Sr2V3O9
_symmetry_space_group_name_H-M   'P 1'
_cell_length_a   9.09722185
_cell_length_b   9.09722185
_cell_length_c   7.06919429
_cell_angle_alpha   77.82683558
_cell_angle_beta   77.82683558
_cell_angle_gamma   130.17342121
_symmetry_Int_Tables_number   1
_chemical_formula_structural   Sr2V3O9
_chemical_formula_sum   'Sr4 V6 O18'
_cell_volume   386.98835429
_cell_formula_units_Z   2
loop_
 _symmetry_equiv_pos_site_id
 _symmetry_equiv_pos_as_xyz
  1  'x, y, z'
loop_
 _atom_site_type_symbol
 _atom_site_label
 _atom_site_symmetry_multiplicity
 _atom_site_fract_x
 _atom_site_fract_y
 _atom_site_fract_z
 _atom_site_occupancy
  Sr  Sr0  1  0.87332800  0.12477400  0.25009300  1
  Sr  Sr1  1  0.12477400  0.87332800  0.75009300  1
  Sr  Sr2  1  0.45223500  0.54997400  0.24861300  1
  Sr  Sr3  1  0.54997400  0.45223500  0.74861300  1
  V  V4  1  0.07982800  0.92181000  0.24911600  1
  V  V5  1  0.92181000  0.07982800  0.74911600  1
  V  V6  1  0.65965700  0.34070000  0.25013700  1
  V  V7  1  0.34070000  0.65965700  0.75013700  1
  V  V8  1  0.03320900  0.52478700  0.47137200  1
  V  V9  1  0.52478700  0.03320900  0.97137200  1
  O  O10  1  0.18285300  0.14537400  0.28022800  1
  O  O11  1  0.85466800  0.81721900  0.22014000  1
  O  O12  1  0.81721900  0.85466800  0.72014000  1
  O  O13  1  0.14537400  0.18285300  0.78022800  1
  O  O14  1  0.48236900  0.28756100  0.47682300  1
  O  O15  1  0.71161400  0.51762600  0.02429100  1
  O  O16  1  0.51762600  0.71161400  0.52429100  1
  O  O17  1  0.28756100  0.48236900  0.97682300  1
  O  O18  1  0.89317200  0.44341100  0.27592600  1
  O  O19  1  0.55766800  0.10927700  0.21989200  1
  O  O20  1  0.10927700  0.55766800  0.71989200  1
  O  O21  1  0.44341100  0.89317200  0.77592600  1
  O  O22  1  0.28781000  0.71458500  0.25284200  1
  O  O23  1  0.71458500  0.28781000  0.75284200  1
  O  O24  1  0.99980600  0.72005100  0.48870600  1
  O  O25  1  0.28068000  0.00301300  0.00792100  1
  O  O26  1  0.00301300  0.28068000  0.50792100  1
  O  O27  1  0.72005100  0.99980600  0.98870600  1
