# generated using pymatgen
data_HfFe2
_symmetry_space_group_name_H-M   'P 1'
_cell_length_a   4.94598195
_cell_length_b   4.94598195
_cell_length_c   8.04136200
_cell_angle_alpha   90.00000000
_cell_angle_beta   90.00000000
_cell_angle_gamma   119.99999932
_symmetry_Int_Tables_number   1
_chemical_formula_structural   HfFe2
_chemical_formula_sum   'Hf4 Fe8'
_cell_volume   170.35908626
_cell_formula_units_Z   4
loop_
 _symmetry_equiv_pos_site_id
 _symmetry_equiv_pos_as_xyz
  1  'x, y, z'
loop_
 _atom_site_type_symbol
 _atom_site_label
 _atom_site_symmetry_multiplicity
 _atom_site_fract_x
 _atom_site_fract_y
 _atom_site_fract_z
 _atom_site_occupancy
  Hf  Hf0  1  0.66666700  0.33333400  0.93745400  1
  Hf  Hf1  1  0.33333300  0.66666600  0.06254600  1
  Hf  Hf2  1  0.33333300  0.66666600  0.43745400  1
  Hf  Hf3  1  0.66666700  0.33333400  0.56254600  1
  Fe  Fe4  1  0.16848200  0.83151800  0.75000000  1
  Fe  Fe5  1  0.83151800  0.16848200  0.25000000  1
  Fe  Fe6  1  0.66303600  0.83151800  0.75000000  1
  Fe  Fe7  1  0.33696400  0.16848200  0.25000000  1
  Fe  Fe8  1  0.16848200  0.33696400  0.75000000  1
  Fe  Fe9  1  0.83151800  0.66303600  0.25000000  1
  Fe  Fe10  1  0.00000000  0.00000000  0.00000000  1
  Fe  Fe11  1  0.00000000  0.00000000  0.50000000  1
