# generated using pymatgen
data_Cu
_symmetry_space_group_name_H-M   'P 1'
_cell_length_a   8.37871784
_cell_length_b   8.37871784
_cell_length_c   8.37871784
_cell_angle_alpha   109.47122063
_cell_angle_beta   109.47122064
_cell_angle_gamma   109.47122064
_symmetry_Int_Tables_number   1
_chemical_formula_structural   Cu
_chemical_formula_sum   Cu12
_cell_volume   452.80457448
_cell_formula_units_Z   12
loop_
 _symmetry_equiv_pos_site_id
 _symmetry_equiv_pos_as_xyz
  1  'x, y, z'
loop_
 _atom_site_type_symbol
 _atom_site_label
 _atom_site_symmetry_multiplicity
 _atom_site_fract_x
 _atom_site_fract_y
 _atom_site_fract_z
 _atom_site_occupancy
  Cu  Cu0  1  0.75000000  0.22055100  0.47055100  1.0
  Cu  Cu1  1  0.97055100  0.75000000  0.72055100  1.0
  Cu  Cu2  1  0.22055100  0.97055100  0.25000000  1.0
  Cu  Cu3  1  0.52944900  0.25000000  0.77944900  1.0
  Cu  Cu4  1  0.27944900  0.52944900  0.75000000  1.0
  Cu  Cu5  1  0.25000000  0.27944900  0.02944900  1.0
  Cu  Cu6  1  0.25000000  0.77944900  0.52944900  1.0
  Cu  Cu7  1  0.02944900  0.25000000  0.27944900  1.0
  Cu  Cu8  1  0.77944900  0.02944900  0.75000000  1.0
  Cu  Cu9  1  0.47055100  0.75000000  0.22055100  1.0
  Cu  Cu10  1  0.72055100  0.47055100  0.25000000  1.0
  Cu  Cu11  1  0.75000000  0.72055100  0.97055100  1.0
