# generated using pymatgen
data_CoRu
_symmetry_space_group_name_H-M   'P 1'
_cell_length_a   5.59541163
_cell_length_b   5.59541163
_cell_length_c   5.59541173
_cell_angle_alpha   60.54307523
_cell_angle_beta   60.54307523
_cell_angle_gamma   60.54308705
_symmetry_Int_Tables_number   1
_chemical_formula_structural   CoRu
_chemical_formula_sum   'Co1 Ru1'
_cell_volume   125.39422350
_cell_formula_units_Z   1
loop_
 _symmetry_equiv_pos_site_id
 _symmetry_equiv_pos_as_xyz
  1  'x, y, z'
loop_
 _atom_site_type_symbol
 _atom_site_label
 _atom_site_symmetry_multiplicity
 _atom_site_fract_x
 _atom_site_fract_y
 _atom_site_fract_z
 _atom_site_occupancy
  Co  Co0  1  0.50000000  0.50000000  0.50000000  1.0
  Ru  Ru1  1  0.00000000  0.00000000  0.00000000  1.0
