# generated using pymatgen
data_TmPd
_symmetry_space_group_name_H-M   'P 1'
_cell_length_a   3.69591100
_cell_length_b   7.79279800
_cell_length_c   7.79279710
_cell_angle_alpha   120.00000380
_cell_angle_beta   90.00000000
_cell_angle_gamma   90.00000000
_symmetry_Int_Tables_number   1
_chemical_formula_structural   TmPd
_chemical_formula_sum   'Tm3 Pd3'
_cell_volume   194.37432894
_cell_formula_units_Z   3
loop_
 _symmetry_equiv_pos_site_id
 _symmetry_equiv_pos_as_xyz
  1  'x, y, z'
loop_
 _atom_site_type_symbol
 _atom_site_label
 _atom_site_symmetry_multiplicity
 _atom_site_fract_x
 _atom_site_fract_y
 _atom_site_fract_z
 _atom_site_occupancy
  Tm  Tm0  1  0.50000000  0.59465600  0.00000000  1.0
  Tm  Tm1  1  0.50000000  0.40534400  0.40534400  1.0
  Tm  Tm2  1  0.50000000  1.00000000  0.59465600  1.0
  Pd  Pd3  1  0.50000000  0.00000000  0.00000000  1.0
  Pd  Pd4  1  1.00000000  0.33333333  0.66666667  1.0
  Pd  Pd5  1  0.00000000  0.66666667  0.33333333  1.0
