# generated using pymatgen
data_SrLaCoO4
_symmetry_space_group_name_H-M   'P 1'
_cell_length_a   5.44978981
_cell_length_b   5.46834783
_cell_length_c   13.31727861
_cell_angle_alpha   78.13959782
_cell_angle_beta   78.18038073
_cell_angle_gamma   89.95265850
_symmetry_Int_Tables_number   1
_chemical_formula_structural   SrLaCoO4
_chemical_formula_sum   'Sr4 La4 Co4 O16'
_cell_volume   379.81193342
_cell_formula_units_Z   4
loop_
 _symmetry_equiv_pos_site_id
 _symmetry_equiv_pos_as_xyz
  1  'x, y, z'
loop_
 _atom_site_type_symbol
 _atom_site_label
 _atom_site_symmetry_multiplicity
 _atom_site_fract_x
 _atom_site_fract_y
 _atom_site_fract_z
 _atom_site_occupancy
  Sr  Sr0  1  0.17889600  0.17887000  0.64252200  1
  Sr  Sr1  1  0.67887000  0.67886700  0.64257500  1
  Sr  Sr2  1  0.42894100  0.92892900  0.14240500  1
  Sr  Sr3  1  0.92887500  0.42886700  0.14250500  1
  La  La4  1  0.07128800  0.57126400  0.85729000  1
  La  La5  1  0.57117800  0.07116400  0.85751500  1
  La  La6  1  0.32128700  0.32132000  0.35721700  1
  La  La7  1  0.82128400  0.82130400  0.35724600  1
  Co  Co8  1  0.24826300  0.74823800  0.50347800  1
  Co  Co9  1  0.49820700  0.49823000  0.00353800  1
  Co  Co10  1  0.74810200  0.24800600  0.50387600  1
  Co  Co11  1  0.99810100  0.99819300  0.00366800  1
  O  O12  1  0.08329800  0.08322900  0.83334900  1
  O  O13  1  0.58320300  0.58311900  0.83352100  1
  O  O14  1  0.33319200  0.83327000  0.33329200  1
  O  O15  1  0.83319100  0.33325500  0.33331200  1
  O  O16  1  0.16314200  0.66317600  0.67384000  1
  O  O17  1  0.66310900  0.16315000  0.67384900  1
  O  O18  1  0.41328900  0.41326900  0.17371000  1
  O  O19  1  0.91325600  0.91321000  0.17374700  1
  O  O20  1  0.76153500  0.76044500  0.99472800  1
  O  O21  1  0.24368500  0.24482400  0.99471900  1
  O  O22  1  0.99385300  0.49452800  0.49467400  1
  O  O23  1  0.51148100  0.01080000  0.49460800  1
  O  O24  1  0.26054500  0.74404500  0.99467700  1
  O  O25  1  0.74473300  0.26118300  0.99465300  1
  O  O26  1  0.49451300  0.51099400  0.49475900  1
  O  O27  1  0.01068600  0.99425400  0.49472600  1
