# generated using pymatgen
data_Ga2CoO4
_symmetry_space_group_name_H-M   'P 1'
_cell_length_a   5.85038600
_cell_length_b   8.46430030
_cell_length_c   5.99729255
_cell_angle_alpha   90.00295420
_cell_angle_beta   90.00467513
_cell_angle_gamma   89.99975211
_symmetry_Int_Tables_number   1
_chemical_formula_structural   Ga2CoO4
_chemical_formula_sum   'Ga8 Co4 O16'
_cell_volume   296.98247166
_cell_formula_units_Z   4
loop_
 _symmetry_equiv_pos_site_id
 _symmetry_equiv_pos_as_xyz
  1  'x, y, z'
loop_
 _atom_site_type_symbol
 _atom_site_label
 _atom_site_symmetry_multiplicity
 _atom_site_fract_x
 _atom_site_fract_y
 _atom_site_fract_z
 _atom_site_occupancy
  Ga  Ga0  1  0.00000000  0.00964600  0.00001000  1
  Ga  Ga1  1  0.49999900  0.50964800  0.50000500  1
  Ga  Ga2  1  0.49999900  0.24035400  0.99999000  1
  Ga  Ga3  1  0.00000100  0.74035100  0.49999500  1
  Ga  Ga4  1  0.99999700  0.37499400  0.25000000  1
  Ga  Ga5  1  0.50000400  0.87500600  0.74999900  1
  Ga  Ga6  1  0.00000900  0.37500700  0.75000000  1
  Ga  Ga7  1  0.49999000  0.87499300  0.25000000  1
  Co  Co8  1  0.25000000  0.12500100  0.50000000  1
  Co  Co9  1  0.25000000  0.62500000  0.00000000  1
  Co  Co10  1  0.75000100  0.62500000  0.00000100  1
  Co  Co11  1  0.75000000  0.12500000  0.50000000  1
  O  O12  1  0.76455400  0.37420900  0.99999000  1
  O  O13  1  0.26456000  0.87422200  0.49999100  1
  O  O14  1  0.23544000  0.37422400  0.00000100  1
  O  O15  1  0.73544500  0.87421000  0.50002100  1
  O  O16  1  0.26456000  0.87577600  0.00000000  1
  O  O17  1  0.76455400  0.37579000  0.49997900  1
  O  O18  1  0.73544500  0.87579100  0.00000900  1
  O  O19  1  0.23543900  0.37577800  0.50000900  1
  O  O20  1  0.99998900  0.61061000  0.24430000  1
  O  O21  1  0.49997100  0.11060100  0.74430900  1
  O  O22  1  0.99999900  0.61062200  0.75570000  1
  O  O23  1  0.50003900  0.11063100  0.25571100  1
  O  O24  1  0.50000100  0.63937800  0.24430000  1
  O  O25  1  0.99996200  0.13936900  0.74428800  1
  O  O26  1  0.50001100  0.63939000  0.75570100  1
  O  O27  1  0.00003000  0.13939900  0.25569300  1
