# generated using pymatgen
data_MnGa
_symmetry_space_group_name_H-M   'P 1'
_cell_length_a   7.85374364
_cell_length_b   7.85717977
_cell_length_c   7.85582522
_cell_angle_alpha   108.77752395
_cell_angle_beta   108.83147853
_cell_angle_gamma   108.90352265
_symmetry_Int_Tables_number   1
_chemical_formula_structural   MnGa
_chemical_formula_sum   'Mn13 Ga13'
_cell_volume   381.67988745
_cell_formula_units_Z   13
loop_
 _symmetry_equiv_pos_site_id
 _symmetry_equiv_pos_as_xyz
  1  'x, y, z'
loop_
 _atom_site_type_symbol
 _atom_site_label
 _atom_site_symmetry_multiplicity
 _atom_site_fract_x
 _atom_site_fract_y
 _atom_site_fract_z
 _atom_site_occupancy
  Mn  Mn0  1  0.18768500  0.18767100  0.83298600  1
  Mn  Mn1  1  0.82332900  0.60382100  0.82331900  1
  Mn  Mn2  1  0.82335400  0.82326000  0.60388000  1
  Mn  Mn3  1  0.81222800  0.16691000  0.81227800  1
  Mn  Mn4  1  0.17666900  0.39630700  0.17669200  1
  Mn  Mn5  1  0.17683200  0.17680200  0.39617300  1
  Mn  Mn6  1  0.83318800  0.18770600  0.18778700  1
  Mn  Mn7  1  0.16695200  0.81227100  0.81215000  1
  Mn  Mn8  1  0.18763300  0.83315400  0.18774700  1
  Mn  Mn9  1  0.81228800  0.81229000  0.16685700  1
  Mn  Mn10  1  0.60378000  0.82314900  0.82340200  1
  Mn  Mn11  1  0.39603800  0.17675800  0.17666100  1
  Mn  Mn12  1  0.50012800  0.50007400  0.50000200  1
  Ga  Ga13  1  0.54031600  0.19176000  0.54033100  1
  Ga  Ga14  1  0.12106000  0.87900100  0.49997200  1
  Ga  Ga15  1  0.12108000  0.50006900  0.87909600  1
  Ga  Ga16  1  0.87889400  0.12097500  0.49999100  1
  Ga  Ga17  1  0.54034000  0.54039900  0.19180400  1
  Ga  Ga18  1  0.45963400  0.80821500  0.45965900  1
  Ga  Ga19  1  0.49993000  0.87886200  0.12099800  1
  Ga  Ga20  1  0.19172300  0.54032900  0.54023000  1
  Ga  Ga21  1  0.50006200  0.12093900  0.87902700  1
  Ga  Ga22  1  0.45961800  0.45969000  0.80827800  1
  Ga  Ga23  1  0.80830100  0.45965600  0.45972400  1
  Ga  Ga24  1  0.99998700  0.00003500  0.99995100  1
  Ga  Ga25  1  0.87894900  0.49989400  0.12100600  1
