# generated using pymatgen
data_ErFe
_symmetry_space_group_name_H-M   'P 1'
_cell_length_a   5.36789749
_cell_length_b   5.38645075
_cell_length_c   8.52346200
_cell_angle_alpha   90.00000000
_cell_angle_beta   90.00000000
_cell_angle_gamma   119.88498181
_symmetry_Int_Tables_number   1
_chemical_formula_structural   ErFe
_chemical_formula_sum   'Er4 Fe4'
_cell_volume   213.67600199
_cell_formula_units_Z   4
loop_
 _symmetry_equiv_pos_site_id
 _symmetry_equiv_pos_as_xyz
  1  'x, y, z'
loop_
 _atom_site_type_symbol
 _atom_site_label
 _atom_site_symmetry_multiplicity
 _atom_site_fract_x
 _atom_site_fract_y
 _atom_site_fract_z
 _atom_site_occupancy
  Er  Er0  1  0.33367000  0.66731100  0.56547200  1.0
  Er  Er1  1  0.66355200  0.32701300  0.44936100  1.0
  Er  Er2  1  0.66355200  0.32701300  0.05063900  1.0
  Er  Er3  1  0.33367000  0.66731100  0.93452800  1.0
  Fe  Fe4  1  0.00597200  0.01200600  0.51216500  1.0
  Fe  Fe5  1  0.00597200  0.01200600  0.98783500  1.0
  Fe  Fe6  1  0.83245800  0.15703700  0.75000000  1.0
  Fe  Fe7  1  0.32452300  0.15704000  0.75000000  1.0
