# generated using pymatgen
data_Nd6Fe13
_symmetry_space_group_name_H-M   'P 1'
_cell_length_a   8.02261200
_cell_length_b   8.02261200
_cell_length_c   12.82482080
_cell_angle_alpha   108.22665136
_cell_angle_beta   108.22665136
_cell_angle_gamma   90.00000000
_symmetry_Int_Tables_number   1
_chemical_formula_structural   Nd6Fe13
_chemical_formula_sum   'Nd12 Fe26'
_cell_volume   740.29205940
_cell_formula_units_Z   2
loop_
 _symmetry_equiv_pos_site_id
 _symmetry_equiv_pos_as_xyz
  1  'x, y, z'
loop_
 _atom_site_type_symbol
 _atom_site_label
 _atom_site_symmetry_multiplicity
 _atom_site_fract_x
 _atom_site_fract_y
 _atom_site_fract_z
 _atom_site_occupancy
  Nd  Nd0  1  0.02258300  0.52258300  0.37773200  1.0
  Nd  Nd1  1  0.97741700  0.47741700  0.62226800  1.0
  Nd  Nd2  1  0.64485100  0.14485100  0.62226800  1.0
  Nd  Nd3  1  0.47741700  0.64485100  0.62226800  1.0
  Nd  Nd4  1  0.14485100  0.97741700  0.62226800  1.0
  Nd  Nd5  1  0.85514900  0.02258300  0.37773200  1.0
  Nd  Nd6  1  0.52258300  0.35514900  0.37773200  1.0
  Nd  Nd7  1  0.35514900  0.85514900  0.37773200  1.0
  Nd  Nd8  1  0.60879100  0.60879100  0.21758200  1.0
  Nd  Nd9  1  0.89120900  0.89120900  0.78241800  1.0
  Nd  Nd10  1  0.39120900  0.39120900  0.78241800  1.0
  Nd  Nd11  1  0.10879100  0.10879100  0.21758200  1.0
  Fe  Fe12  1  0.50000000  1.00000000  1.00000000  1.0
  Fe  Fe13  1  1.00000000  0.50000000  1.00000000  1.0
  Fe  Fe14  1  0.70879600  0.20879600  0.19122200  1.0
  Fe  Fe15  1  0.29120400  0.79120400  0.80877800  1.0
  Fe  Fe16  1  0.51757400  0.01757400  0.80877800  1.0
  Fe  Fe17  1  0.79120400  0.51757500  0.80877900  1.0
  Fe  Fe18  1  0.01757400  0.29120300  0.80877700  1.0
  Fe  Fe19  1  0.98242600  0.70879700  0.19122300  1.0
  Fe  Fe20  1  0.20879600  0.48242500  0.19122100  1.0
  Fe  Fe21  1  0.48242600  0.98242600  0.19122200  1.0
  Fe  Fe22  1  0.06622700  0.20908800  1.00000000  1.0
  Fe  Fe23  1  0.79091200  0.06622700  0.00000000  1.0
  Fe  Fe24  1  0.20908800  0.93377300  0.00000000  1.0
  Fe  Fe25  1  0.43377300  0.70908800  1.00000000  1.0
  Fe  Fe26  1  0.56622700  0.29091200  0.00000000  1.0
  Fe  Fe27  1  0.29091200  0.43377300  0.00000000  1.0
  Fe  Fe28  1  0.70908800  0.56622700  0.00000000  1.0
  Fe  Fe29  1  0.93377300  0.79091200  0.00000000  1.0
  Fe  Fe30  1  0.23912000  0.73912000  0.12012100  1.0
  Fe  Fe31  1  0.38100100  0.23912000  0.12012100  1.0
  Fe  Fe32  1  0.73912000  0.88100100  0.12012100  1.0
  Fe  Fe33  1  0.26088000  0.11899900  0.87987900  1.0
  Fe  Fe34  1  0.61899900  0.76088000  0.87987900  1.0
  Fe  Fe35  1  0.76088000  0.26088000  0.87987900  1.0
  Fe  Fe36  1  0.11899900  0.61899900  0.87987900  1.0
  Fe  Fe37  1  0.88100100  0.38100100  0.12012100  1.0
