# generated using pymatgen
data_SmCr
_symmetry_space_group_name_H-M   'P 1'
_cell_length_a   5.41137200
_cell_length_b   5.62929200
_cell_length_c   7.74926000
_cell_angle_alpha   90.00000000
_cell_angle_beta   90.00000000
_cell_angle_gamma   90.00000000
_symmetry_Int_Tables_number   1
_chemical_formula_structural   SmCr
_chemical_formula_sum   'Sm4 Cr4'
_cell_volume   236.05945457
_cell_formula_units_Z   4
loop_
 _symmetry_equiv_pos_site_id
 _symmetry_equiv_pos_as_xyz
  1  'x, y, z'
loop_
 _atom_site_type_symbol
 _atom_site_label
 _atom_site_symmetry_multiplicity
 _atom_site_fract_x
 _atom_site_fract_y
 _atom_site_fract_z
 _atom_site_occupancy
  Sm  Sm0  1  0.51638400  0.55913500  0.25000000  1.0
  Sm  Sm1  1  0.98361600  0.05913500  0.25000000  1.0
  Sm  Sm2  1  0.48361600  0.44086500  0.75000000  1.0
  Sm  Sm3  1  0.01638400  0.94086500  0.75000000  1.0
  Cr  Cr4  1  0.00000000  0.50000000  0.00000000  1.0
  Cr  Cr5  1  0.50000000  0.00000000  0.50000000  1.0
  Cr  Cr6  1  0.00000000  0.50000000  0.50000000  1.0
  Cr  Cr7  1  0.50000000  0.00000000  0.00000000  1.0
