# generated using pymatgen
data_Mn
_symmetry_space_group_name_H-M   'P 1'
_cell_length_a   5.57817700
_cell_length_b   9.81660800
_cell_length_c   10.02221537
_cell_angle_alpha   111.39235125
_cell_angle_beta   90.00000000
_cell_angle_gamma   90.00000000
_symmetry_Int_Tables_number   1
_chemical_formula_structural   Mn
_chemical_formula_sum   Mn8
_cell_volume   510.99412189
_cell_formula_units_Z   8
loop_
 _symmetry_equiv_pos_site_id
 _symmetry_equiv_pos_as_xyz
  1  'x, y, z'
loop_
 _atom_site_type_symbol
 _atom_site_label
 _atom_site_symmetry_multiplicity
 _atom_site_fract_x
 _atom_site_fract_y
 _atom_site_fract_z
 _atom_site_occupancy
  Mn  Mn0  1  0.50000000  0.00000000  0.50000000  1.0
  Mn  Mn1  1  0.00000000  0.00000000  0.00000000  1.0
  Mn  Mn2  1  0.50000000  0.50000000  1.00000000  1.0
  Mn  Mn3  1  1.00000000  0.50000000  0.50000000  1.0
  Mn  Mn4  1  0.52404200  0.74665400  0.75820700  1.0
  Mn  Mn5  1  0.02404200  0.25334600  0.74179300  1.0
  Mn  Mn6  1  0.47595800  0.25334600  0.24179300  1.0
  Mn  Mn7  1  0.97595800  0.74665400  0.25820700  1.0
