# generated using pymatgen
data_Ba2FeReO6
_symmetry_space_group_name_H-M   'P 1'
_cell_length_a   5.77013621
_cell_length_b   5.77117686
_cell_length_c   5.77111788
_cell_angle_alpha   89.93132291
_cell_angle_beta   120.04188614
_cell_angle_gamma   120.04191289
_symmetry_Int_Tables_number   1
_chemical_formula_structural   Ba2FeReO6
_chemical_formula_sum   'Ba2 Fe1 Re1 O6'
_cell_volume   135.80169804
_cell_formula_units_Z   1
loop_
 _symmetry_equiv_pos_site_id
 _symmetry_equiv_pos_as_xyz
  1  'x, y, z'
loop_
 _atom_site_type_symbol
 _atom_site_label
 _atom_site_symmetry_multiplicity
 _atom_site_fract_x
 _atom_site_fract_y
 _atom_site_fract_z
 _atom_site_occupancy
  Ba  Ba0  1  0.49999800  0.24999000  0.75000600  1
  Ba  Ba1  1  0.50000200  0.75000900  0.24999300  1
  Fe  Fe2  1  0.00000100  0.00000100  0.99999900  1
  Re  Re3  1  0.00000000  0.50000200  0.50000200  1
  O  O4  1  0.00000300  0.74314100  0.74313900  1
  O  O5  1  0.99999700  0.25685900  0.25686000  1
  O  O6  1  0.48499900  0.74250200  0.74250200  1
  O  O7  1  0.00000000  0.74262200  0.25737900  1
  O  O8  1  0.51500100  0.25749700  0.25749800  1
  O  O9  1  0.99999900  0.25737700  0.74262100  1
