# generated using pymatgen
data_V
_symmetry_space_group_name_H-M   'P 1'
_cell_length_a   2.95341413
_cell_length_b   2.97336694
_cell_length_c   10.08285084
_cell_angle_alpha   89.98085851
_cell_angle_beta   89.97900792
_cell_angle_gamma   119.75511078
_symmetry_Int_Tables_number   1
_chemical_formula_structural   V
_chemical_formula_sum   V2
_cell_volume   76.86933754
_cell_formula_units_Z   2
loop_
 _symmetry_equiv_pos_site_id
 _symmetry_equiv_pos_as_xyz
  1  'x, y, z'
loop_
 _atom_site_type_symbol
 _atom_site_label
 _atom_site_symmetry_multiplicity
 _atom_site_fract_x
 _atom_site_fract_y
 _atom_site_fract_z
 _atom_site_occupancy
  V  V0  1  0.66589750  0.33288200  0.50035300  1.0
  V  V1  1  0.33315250  0.66616300  0.00034500  1.0
