# generated using pymatgen
data_Fe
_symmetry_space_group_name_H-M   'P 1'
_cell_length_a   2.45268720
_cell_length_b   2.45268724
_cell_length_c   7.86042065
_cell_angle_alpha   90.00418265
_cell_angle_beta   89.99591017
_cell_angle_gamma   104.68529188
_symmetry_Int_Tables_number   1
_chemical_formula_structural   Fe
_chemical_formula_sum   Fe4
_cell_volume   45.74104301
_cell_formula_units_Z   4
loop_
 _symmetry_equiv_pos_site_id
 _symmetry_equiv_pos_as_xyz
  1  'x, y, z'
loop_
 _atom_site_type_symbol
 _atom_site_label
 _atom_site_symmetry_multiplicity
 _atom_site_fract_x
 _atom_site_fract_y
 _atom_site_fract_z
 _atom_site_occupancy
  Fe  Fe0  1  0.99996300  0.00003800  0.49980900  1
  Fe  Fe1  1  0.50003700  0.49996200  0.75018600  1
  Fe  Fe2  1  0.99996500  0.00003600  0.99987300  1
  Fe  Fe3  1  0.50003400  0.49996500  0.25013200  1
