# generated using pymatgen
data_Er
_symmetry_space_group_name_H-M   'P 1'
_cell_length_a   4.31858600
_cell_length_b   8.75357400
_cell_length_c   9.57634110
_cell_angle_alpha   117.19637649
_cell_angle_beta   103.03122591
_cell_angle_gamma   90.00000000
_symmetry_Int_Tables_number   1
_chemical_formula_structural   Er
_chemical_formula_sum   Er4
_cell_volume   311.47405879
_cell_formula_units_Z   4
loop_
 _symmetry_equiv_pos_site_id
 _symmetry_equiv_pos_as_xyz
  1  'x, y, z'
loop_
 _atom_site_type_symbol
 _atom_site_label
 _atom_site_symmetry_multiplicity
 _atom_site_fract_x
 _atom_site_fract_y
 _atom_site_fract_z
 _atom_site_occupancy
  Er  Er0  1  0.79957000  0.29957000  0.59914000  1.0
  Er  Er1  1  0.00000000  0.73688300  0.00000000  1.0
  Er  Er2  1  0.20043000  0.70043000  0.40086000  1.0
  Er  Er3  1  1.00000000  0.26311700  1.00000000  1.0
