# generated using pymatgen
data_NbCo2
_symmetry_space_group_name_H-M   'P 1'
_cell_length_a   5.21339782
_cell_length_b   5.22448618
_cell_length_c   14.30369990
_cell_angle_alpha   89.37399848
_cell_angle_beta   89.75719055
_cell_angle_gamma   60.08155333
_symmetry_Int_Tables_number   1
_chemical_formula_structural   NbCo2
_chemical_formula_sum   'Nb4 Co8'
_cell_volume   337.65519542
_cell_formula_units_Z   4
loop_
 _symmetry_equiv_pos_site_id
 _symmetry_equiv_pos_as_xyz
  1  'x, y, z'
loop_
 _atom_site_type_symbol
 _atom_site_label
 _atom_site_symmetry_multiplicity
 _atom_site_fract_x
 _atom_site_fract_y
 _atom_site_fract_z
 _atom_site_occupancy
  Nb  Nb0  1  0.99690200  0.00789500  0.35772800  1.0
  Nb  Nb1  1  0.99989200  0.99528000  0.14103000  1.0
  Nb  Nb2  1  0.00351200  0.99616300  0.64163000  1.0
  Nb  Nb3  1  0.99873600  0.00254200  0.85837900  1.0
  Co  Co4  1  0.33275800  0.33160900  0.98635800  1.0
  Co  Co5  1  0.33679100  0.33461900  0.48935300  1.0
  Co  Co6  1  0.66537400  0.66729800  0.01218200  1.0
  Co  Co7  1  0.33116600  0.33458000  0.19582500  1.0
  Co  Co8  1  0.66552500  0.67040500  0.51123600  1.0
  Co  Co9  1  0.66349200  0.66486400  0.30851100  1.0
  Co  Co10  1  0.33497700  0.33445400  0.69514700  1.0
  Co  Co11  1  0.66778500  0.66519700  0.80564300  1.0
