# generated using pymatgen
data_Tb3Co8
_symmetry_space_group_name_H-M   'P 1'
_cell_length_a   7.55511600
_cell_length_b   8.85301400
_cell_length_c   8.85301398
_cell_angle_alpha   120.00000008
_cell_angle_beta   90.00000000
_cell_angle_gamma   90.00000000
_symmetry_Int_Tables_number   1
_chemical_formula_structural   Tb3Co8
_chemical_formula_sum   'Tb6 Co16'
_cell_volume   512.80714692
_cell_formula_units_Z   2
loop_
 _symmetry_equiv_pos_site_id
 _symmetry_equiv_pos_as_xyz
  1  'x, y, z'
loop_
 _atom_site_type_symbol
 _atom_site_label
 _atom_site_symmetry_multiplicity
 _atom_site_fract_x
 _atom_site_fract_y
 _atom_site_fract_z
 _atom_site_occupancy
  Tb  Tb0  1  0.78462400  0.95098100  0.47549000  1.0
  Tb  Tb1  1  0.78462400  0.52450900  0.04901800  1.0
  Tb  Tb2  1  0.28462400  0.04901900  0.52451000  1.0
  Tb  Tb3  1  0.78462400  0.52450900  0.47549000  1.0
  Tb  Tb4  1  0.28462400  0.47549100  0.95098200  1.0
  Tb  Tb5  1  0.28462400  0.47549100  0.52451000  1.0
  Co  Co6  1  0.62464000  0.33333333  0.66666667  1.0
  Co  Co7  1  0.12464000  0.66666667  0.33333333  1.0
  Co  Co8  1  0.75491600  0.19568200  0.09784100  1.0
  Co  Co9  1  0.75491600  0.90215900  0.80431800  1.0
  Co  Co10  1  0.25491600  0.80431800  0.90215900  1.0
  Co  Co11  1  0.75491600  0.90215900  0.09784100  1.0
  Co  Co12  1  0.25491600  0.09784100  0.19568200  1.0
  Co  Co13  1  0.25491600  0.09784100  0.90215900  1.0
  Co  Co14  1  0.94361500  0.68147200  0.84073600  1.0
  Co  Co15  1  0.94361500  0.15926400  0.31852800  1.0
  Co  Co16  1  0.44361500  0.31852800  0.15926400  1.0
  Co  Co17  1  0.94361500  0.15926400  0.84073600  1.0
  Co  Co18  1  0.44361500  0.84073600  0.68147200  1.0
  Co  Co19  1  0.44361500  0.84073600  0.15926400  1.0
  Co  Co20  1  0.99875700  1.00000000  1.00000000  1.0
  Co  Co21  1  0.49875700  1.00000000  1.00000000  1.0
