# generated using pymatgen
data_Os
_symmetry_space_group_name_H-M   'P 1'
_cell_length_a   7.21725203
_cell_length_b   7.21725203
_cell_length_c   7.22936639
_cell_angle_alpha   60.05541545
_cell_angle_beta   60.05541545
_cell_angle_gamma   59.99999971
_symmetry_Int_Tables_number   1
_chemical_formula_structural   Os
_chemical_formula_sum   Os4
_cell_volume   266.49694798
_cell_formula_units_Z   4
loop_
 _symmetry_equiv_pos_site_id
 _symmetry_equiv_pos_as_xyz
  1  'x, y, z'
loop_
 _atom_site_type_symbol
 _atom_site_label
 _atom_site_symmetry_multiplicity
 _atom_site_fract_x
 _atom_site_fract_y
 _atom_site_fract_z
 _atom_site_occupancy
  Os  Os0  1  0.12427100  0.12427100  0.12684300  1.0
  Os  Os1  1  0.12427100  0.62461500  0.12684300  1.0
  Os  Os2  1  0.62461500  0.12427100  0.12684300  1.0
  Os  Os3  1  0.12443800  0.12443800  0.62668600  1.0
