# generated using pymatgen
data_Nd2Fe3
_symmetry_space_group_name_H-M   'P 1'
_cell_length_a   8.15169500
_cell_length_b   8.15169500
_cell_length_c   13.05756339
_cell_angle_alpha   108.18851751
_cell_angle_beta   108.18852213
_cell_angle_gamma   90.00000000
_symmetry_Int_Tables_number   1
_chemical_formula_structural   Nd2Fe3
_chemical_formula_sum   'Nd12 Fe18'
_cell_volume   778.55877808
_cell_formula_units_Z   6
loop_
 _symmetry_equiv_pos_site_id
 _symmetry_equiv_pos_as_xyz
  1  'x, y, z'
loop_
 _atom_site_type_symbol
 _atom_site_label
 _atom_site_symmetry_multiplicity
 _atom_site_fract_x
 _atom_site_fract_y
 _atom_site_fract_z
 _atom_site_occupancy
  Nd  Nd0  1  0.10589500  0.10589500  0.21179000  1.0
  Nd  Nd1  1  0.89410500  0.89410500  0.78821000  1.0
  Nd  Nd2  1  0.39410500  0.39410500  0.78821000  1.0
  Nd  Nd3  1  0.60589500  0.60589500  0.21179000  1.0
  Nd  Nd4  1  0.52352700  0.35695000  0.38047700  1.0
  Nd  Nd5  1  0.47647300  0.64305000  0.61952300  1.0
  Nd  Nd6  1  0.85695000  0.02352700  0.38047700  1.0
  Nd  Nd7  1  0.02352700  0.52352700  0.38047700  1.0
  Nd  Nd8  1  0.64305000  0.14305000  0.61952300  1.0
  Nd  Nd9  1  0.14305000  0.97647300  0.61952300  1.0
  Nd  Nd10  1  0.97647300  0.47647300  0.61952300  1.0
  Nd  Nd11  1  0.35695000  0.85695000  0.38047700  1.0
  Fe  Fe12  1  0.38096500  0.23289500  0.11386000  1.0
  Fe  Fe13  1  0.61903500  0.76710500  0.88614000  1.0
  Fe  Fe14  1  0.73289500  0.88096500  0.11386000  1.0
  Fe  Fe15  1  0.88096500  0.38096500  0.11386000  1.0
  Fe  Fe16  1  0.76710500  0.26710500  0.88614000  1.0
  Fe  Fe17  1  0.26710500  0.11903500  0.88614000  1.0
  Fe  Fe18  1  0.11903500  0.61903500  0.88614000  1.0
  Fe  Fe19  1  0.23289500  0.73289500  0.11386000  1.0
  Fe  Fe20  1  0.50000000  1.00000000  1.00000000  1.0
  Fe  Fe21  1  1.00000000  0.50000000  1.00000000  1.0
  Fe  Fe22  1  0.78871700  0.06829900  0.00000000  1.0
  Fe  Fe23  1  0.21128300  0.93170100  0.00000000  1.0
  Fe  Fe24  1  0.93170100  0.78871700  1.00000000  1.0
  Fe  Fe25  1  0.28871700  0.43170100  1.00000000  1.0
  Fe  Fe26  1  0.06829900  0.21128300  1.00000000  1.0
  Fe  Fe27  1  0.71128300  0.56829900  0.00000000  1.0
  Fe  Fe28  1  0.43170100  0.71128300  1.00000000  1.0
  Fe  Fe29  1  0.56829900  0.28871700  0.00000000  1.0
