# generated using pymatgen
data_CePd5
_symmetry_space_group_name_H-M   'P 1'
_cell_length_a   4.15028000
_cell_length_b   7.34402600
_cell_length_c   20.35038900
_cell_angle_alpha   90.00000000
_cell_angle_beta   90.00000000
_cell_angle_gamma   90.00000000
_symmetry_Int_Tables_number   1
_chemical_formula_structural   CePd5
_chemical_formula_sum   'Ce4 Pd20'
_cell_volume   620.27505865
_cell_formula_units_Z   4
loop_
 _symmetry_equiv_pos_site_id
 _symmetry_equiv_pos_as_xyz
  1  'x, y, z'
loop_
 _atom_site_type_symbol
 _atom_site_label
 _atom_site_symmetry_multiplicity
 _atom_site_fract_x
 _atom_site_fract_y
 _atom_site_fract_z
 _atom_site_occupancy
  Ce  Ce0  1  0.75000000  0.37684500  0.35548600  1.0
  Ce  Ce1  1  0.75000000  0.12315500  0.85548600  1.0
  Ce  Ce2  1  0.25000000  0.62315500  0.64451400  1.0
  Ce  Ce3  1  0.25000000  0.87684500  0.14451400  1.0
  Pd  Pd4  1  0.75000000  0.12082900  0.48560200  1.0
  Pd  Pd5  1  0.25000000  0.82290000  0.80043200  1.0
  Pd  Pd6  1  0.25000000  0.67710000  0.30043200  1.0
  Pd  Pd7  1  0.75000000  0.64568600  0.88405800  1.0
  Pd  Pd8  1  0.25000000  0.14568600  0.61594200  1.0
  Pd  Pd9  1  0.25000000  0.12850200  0.99447000  1.0
  Pd  Pd10  1  0.75000000  0.17710000  0.19956800  1.0
  Pd  Pd11  1  0.25000000  0.35431400  0.11594200  1.0
  Pd  Pd12  1  0.75000000  0.85431400  0.38405800  1.0
  Pd  Pd13  1  0.25000000  0.42669000  0.79394200  1.0
  Pd  Pd14  1  0.25000000  0.87917100  0.51439800  1.0
  Pd  Pd15  1  0.75000000  0.62850200  0.50553000  1.0
  Pd  Pd16  1  0.75000000  0.37917100  0.98560200  1.0
  Pd  Pd17  1  0.25000000  0.37149800  0.49447000  1.0
  Pd  Pd18  1  0.25000000  0.07331000  0.29394200  1.0
  Pd  Pd19  1  0.75000000  0.57331000  0.20605800  1.0
  Pd  Pd20  1  0.75000000  0.92669000  0.70605800  1.0
  Pd  Pd21  1  0.75000000  0.32290000  0.69956800  1.0
  Pd  Pd22  1  0.75000000  0.87149800  0.00553000  1.0
  Pd  Pd23  1  0.25000000  0.62082900  0.01439800  1.0
