# generated using pymatgen
data_Sm2Os
_symmetry_space_group_name_H-M   'P 1'
_cell_length_a   5.41668900
_cell_length_b   5.82385600
_cell_length_c   7.74525871
_cell_angle_alpha   90.00000000
_cell_angle_beta   90.73351465
_cell_angle_gamma   90.00000000
_symmetry_Int_Tables_number   1
_chemical_formula_structural   Sm2Os
_chemical_formula_sum   'Sm4 Os2'
_cell_volume   244.31203842
_cell_formula_units_Z   2
loop_
 _symmetry_equiv_pos_site_id
 _symmetry_equiv_pos_as_xyz
  1  'x, y, z'
loop_
 _atom_site_type_symbol
 _atom_site_label
 _atom_site_symmetry_multiplicity
 _atom_site_fract_x
 _atom_site_fract_y
 _atom_site_fract_z
 _atom_site_occupancy
  Sm  Sm0  1  0.48056700  0.92510900  0.25171000  1.0
  Sm  Sm1  1  0.01943300  0.42510800  0.24829000  1.0
  Sm  Sm2  1  0.98056700  0.57489100  0.75171000  1.0
  Sm  Sm3  1  0.51943300  0.07489100  0.74829000  1.0
  Os  Os4  1  0.50000000  0.50000000  1.00000000  1.0
  Os  Os5  1  0.00000000  0.00000000  0.50000000  1.0
