# generated using pymatgen
data_SrLaFeO4
_symmetry_space_group_name_H-M   'P 1'
_cell_length_a   6.91573637
_cell_length_b   6.91573637
_cell_length_c   5.57126000
_cell_angle_alpha   90.00000000
_cell_angle_beta   90.00000000
_cell_angle_gamma   132.56595692
_symmetry_Int_Tables_number   1
_chemical_formula_structural   SrLaFeO4
_chemical_formula_sum   'Sr2 La2 Fe2 O8'
_cell_volume   196.24677334
_cell_formula_units_Z   2
loop_
 _symmetry_equiv_pos_site_id
 _symmetry_equiv_pos_as_xyz
  1  'x, y, z'
loop_
 _atom_site_type_symbol
 _atom_site_label
 _atom_site_symmetry_multiplicity
 _atom_site_fract_x
 _atom_site_fract_y
 _atom_site_fract_z
 _atom_site_occupancy
  Sr  Sr0  1  0.60589000  0.39411000  0.25000000  1
  Sr  Sr1  1  0.39411000  0.60589000  0.75000000  1
  La  La2  1  0.11036700  0.88963300  0.75000000  1
  La  La3  1  0.88963300  0.11036700  0.25000000  1
  Fe  Fe4  1  0.25512900  0.74487100  0.25000000  1
  Fe  Fe5  1  0.74487100  0.25512900  0.75000000  1
  O  O6  1  0.92790000  0.07210000  0.75000000  1
  O  O7  1  0.41457400  0.58542600  0.25000000  1
  O  O8  1  0.07210000  0.92790000  0.25000000  1
  O  O9  1  0.58542600  0.41457400  0.75000000  1
  O  O10  1  0.00000000  0.50000000  0.50000000  1
  O  O11  1  0.50000000  0.00000000  0.00000000  1
  O  O12  1  0.00000000  0.50000000  0.00000000  1
  O  O13  1  0.50000000  0.00000000  0.50000000  1
