# generated using pymatgen
data_ErMn
_symmetry_space_group_name_H-M   'P 1'
_cell_length_a   4.04821100
_cell_length_b   7.09933600
_cell_length_c   7.09933572
_cell_angle_alpha   120.00000132
_cell_angle_beta   90.00000000
_cell_angle_gamma   90.00000000
_symmetry_Int_Tables_number   1
_chemical_formula_structural   ErMn
_chemical_formula_sum   'Er3 Mn3'
_cell_volume   176.69701455
_cell_formula_units_Z   3
loop_
 _symmetry_equiv_pos_site_id
 _symmetry_equiv_pos_as_xyz
  1  'x, y, z'
loop_
 _atom_site_type_symbol
 _atom_site_label
 _atom_site_symmetry_multiplicity
 _atom_site_fract_x
 _atom_site_fract_y
 _atom_site_fract_z
 _atom_site_occupancy
  Er  Er0  1  0.50000000  1.00000000  0.41330400  1.0
  Er  Er1  1  0.50000000  0.41330400  1.00000000  1.0
  Er  Er2  1  0.50000000  0.58669600  0.58669600  1.0
  Mn  Mn3  1  0.00000000  1.00000000  0.76648200  1.0
  Mn  Mn4  1  0.00000000  0.76648200  0.00000000  1.0
  Mn  Mn5  1  1.00000000  0.23351800  0.23351800  1.0
