# generated using pymatgen
data_TiO
_symmetry_space_group_name_H-M   'P 1'
_cell_length_a   10.79911324
_cell_length_b   10.42797579
_cell_length_c   10.72396831
_cell_angle_alpha   90.05656324
_cell_angle_beta   90.14973325
_cell_angle_gamma   86.45157374
_symmetry_Int_Tables_number   1
_chemical_formula_structural   TiO
_chemical_formula_sum   'Ti50 O50'
_cell_volume   1205.33728313
_cell_formula_units_Z   50
loop_
 _symmetry_equiv_pos_site_id
 _symmetry_equiv_pos_as_xyz
  1  'x, y, z'
loop_
 _atom_site_type_symbol
 _atom_site_label
 _atom_site_symmetry_multiplicity
 _atom_site_fract_x
 _atom_site_fract_y
 _atom_site_fract_z
 _atom_site_occupancy
  Ti  Ti0  1  0.63649059  0.11090744  0.11625318  1
  Ti  Ti1  1  0.62812055  0.85960361  0.52159103  1
  Ti  Ti2  1  0.77809234  0.35584222  0.54777812  1
  Ti  Ti3  1  0.07645695  0.02134012  0.01182878  1
  Ti  Ti4  1  0.21623525  0.81648987  0.16169432  1
  Ti  Ti5  1  0.44262194  0.53866789  0.93167101  1
  Ti  Ti6  1  0.61645235  0.39713622  0.09148413  1
  Ti  Ti7  1  0.18499028  0.05091289  0.36248320  1
  Ti  Ti8  1  0.97451371  0.99076450  0.25133974  1
  Ti  Ti9  1  0.44546932  0.55919271  0.53419463  1
  Ti  Ti10  1  0.56893595  0.95875739  0.78976970  1
  Ti  Ti11  1  0.59691514  0.18738648  0.58664868  1
  Ti  Ti12  1  0.84307965  0.03227670  0.82112993  1
  Ti  Ti13  1  0.07356947  0.85692483  0.49349792  1
  Ti  Ti14  1  0.40075846  0.24754294  0.14111780  1
  Ti  Ti15  1  0.29926437  0.42762417  0.69470043  1
  Ti  Ti16  1  0.83754518  0.68214323  0.40179185  1
  Ti  Ti17  1  0.62395384  0.75569561  0.96157137  1
  Ti  Ti18  1  0.21852726  0.68421917  0.92496115  1
  Ti  Ti19  1  0.23238864  0.69258242  0.66969099  1
  Ti  Ti20  1  0.81564276  0.42668766  0.29286477  1
  Ti  Ti21  1  0.24426603  0.51073581  0.13973629  1
  Ti  Ti22  1  0.67402757  0.24236953  0.87940601  1
  Ti  Ti23  1  0.01471655  0.60650232  0.59223702  1
  Ti  Ti24  1  0.27777580  0.92948590  0.80146763  1
  Ti  Ti25  1  0.60226285  0.48101570  0.72691135  1
  Ti  Ti26  1  0.86554711  0.28463961  0.05319726  1
  Ti  Ti27  1  0.37813095  0.20588335  0.84123935  1
  Ti  Ti28  1  0.42225384  0.88168949  0.02150753  1
  Ti  Ti29  1  0.50120542  0.09686456  0.36301467  1
  Ti  Ti30  1  0.56820469  0.86521776  0.23377633  1
  Ti  Ti31  1  0.54869166  0.36725595  0.36716553  1
  Ti  Ti32  1  0.46904779  0.74417744  0.72423077  1
  Ti  Ti33  1  0.00827558  0.82113426  0.75478362  1
  Ti  Ti34  1  0.16696916  0.39297540  0.92019651  1
  Ti  Ti35  1  0.33087082  0.21991008  0.52926350  1
  Ti  Ti36  1  0.91111959  0.31625650  0.79056822  1
  Ti  Ti37  1  0.03791917  0.27128187  0.27143741  1
  Ti  Ti38  1  0.02006658  0.69486702  0.23324335  1
  Ti  Ti39  1  0.74076265  0.64593438  0.15993382  1
  Ti  Ti40  1  0.05245715  0.30871487  0.56259286  1
  Ti  Ti41  1  0.47005346  0.62463385  0.17929493  1
  Ti  Ti42  1  0.30120114  0.70790726  0.37370971  1
  Ti  Ti43  1  0.81743930  0.90024692  0.04835952  1
  Ti  Ti44  1  0.36510439  0.93889209  0.54842197  1
  Ti  Ti45  1  0.86484907  0.07215838  0.52992912  1
  Ti  Ti46  1  0.14834138  0.16454506  0.75504321  1
  Ti  Ti47  1  0.77477627  0.61551784  0.62612464  1
  Ti  Ti48  1  0.18188020  0.49787613  0.41230213  1
  Ti  Ti49  1  0.74760906  0.16554588  0.32832920  1
  O  O50  1  0.37514778  0.74468474  0.54992701  1
  O  O51  1  0.13937781  0.45888213  0.58893078  1
  O  O52  1  0.17765439  0.55596522  0.79983739  1
  O  O53  1  0.90486753  0.68667860  0.72546112  1
  O  O54  1  0.16496884  0.00064331  0.18800493  1
  O  O55  1  0.44600789  0.25611532  0.68315398  1
  O  O56  1  0.49356901  0.90946828  0.40703822  1
  O  O57  1  0.02090478  0.03638162  0.44166774  1
  O  O58  1  0.24760321  0.30118621  0.06135350  1
  O  O59  1  0.60599345  0.92929514  0.06436255  1
  O  O60  1  0.42643563  0.45181893  0.11147556  1
  O  O61  1  0.67844672  0.09691821  0.73949424  1
  O  O62  1  0.99761666  0.16357926  0.12593327  1
  O  O63  1  0.59383915  0.65744723  0.60086689  1
  O  O64  1  0.90805382  0.29273814  0.40395304  1
  O  O65  1  0.51750945  0.21810485  0.99971871  1
  O  O66  1  0.91087200  0.45383766  0.64255560  1
  O  O67  1  0.72946033  0.33289824  0.72973706  1
  O  O68  1  0.23050600  0.88187594  0.97759424  1
  O  O69  1  0.69012912  0.75745985  0.31808682  1
  O  O70  1  0.57405898  0.63509374  0.83795451  1
  O  O71  1  0.79490435  0.00955464  0.20810022  1
  O  O72  1  0.78715208  0.45924420  0.11229243  1
  O  O73  1  0.13079963  0.66067786  0.08356898  1
  O  O74  1  0.46414377  0.57193755  0.35147962  1
  O  O75  1  0.99405355  0.57019425  0.38758350  1
  O  O76  1  0.96475313  0.90550906  0.92437591  1
  O  O77  1  0.15153410  0.41065333  0.25634897  1
  O  O78  1  0.77932300  0.11273794  0.98874929  1
  O  O79  1  0.35269203  0.39091186  0.86995972  1
  O  O80  1  0.72915199  0.88598004  0.87007400  1
  O  O81  1  0.42060999  0.02227922  0.88274492  1
  O  O82  1  0.15675446  0.68240334  0.48852160  1
  O  O83  1  0.39876683  0.80715717  0.20628073  1
  O  O84  1  0.88446355  0.73366802  0.11439001  1
  O  O85  1  0.76523870  0.52109374  0.45391735  1
  O  O86  1  0.58643974  0.39154562  0.54812419  1
  O  O87  1  0.34515724  0.40805649  0.50479454  1
  O  O88  1  0.94530349  0.82398716  0.35362580  1
  O  O89  1  0.28343677  0.07729420  0.65631554  1
  O  O90  1  0.40693085  0.26775009  0.32122897  1
  O  O91  1  0.90714837  0.94807573  0.65911909  1
  O  O92  1  0.98571189  0.37906786  0.94088370  1
  O  O93  1  0.44759019  0.06788876  0.18377154  1
  O  O94  1  0.91205220  0.21251921  0.62790396  1
  O  O95  1  0.69040252  0.03528375  0.47848416  1
  O  O96  1  0.15646675  0.88324819  0.65593409  1
  O  O97  1  0.59826920  0.41568068  0.90574211  1
  O  O98  1  0.16509573  0.22793926  0.43601597  1
  O  O99  1  0.99615710  0.13764787  0.84787774  1
