# generated using pymatgen
data_Al
_symmetry_space_group_name_H-M   'P 1'
_cell_length_a   12.16816738
_cell_length_b   12.37806644
_cell_length_c   11.78519930
_cell_angle_alpha   93.67854664
_cell_angle_beta   96.53800846
_cell_angle_gamma   93.04889641
_symmetry_Int_Tables_number   1
_chemical_formula_structural   Al
_chemical_formula_sum   Al100
_cell_volume   1756.61127516
_cell_formula_units_Z   100
loop_
 _symmetry_equiv_pos_site_id
 _symmetry_equiv_pos_as_xyz
  1  'x, y, z'
loop_
 _atom_site_type_symbol
 _atom_site_label
 _atom_site_symmetry_multiplicity
 _atom_site_fract_x
 _atom_site_fract_y
 _atom_site_fract_z
 _atom_site_occupancy
  Al  Al0  1  0.03189352  0.80689538  0.22895801  1
  Al  Al1  1  0.30225700  0.21258053  0.28392011  1
  Al  Al2  1  0.82809493  0.43283735  0.56181164  1
  Al  Al3  1  0.59751700  0.71772768  0.75355939  1
  Al  Al4  1  0.90916263  0.18033519  0.82626685  1
  Al  Al5  1  0.74309680  0.47581964  0.99531641  1
  Al  Al6  1  0.91895438  0.43412478  0.17696050  1
  Al  Al7  1  0.27071717  0.23137852  0.63893137  1
  Al  Al8  1  0.89901053  0.63820954  0.08580812  1
  Al  Al9  1  0.15170947  0.16094561  0.09456210  1
  Al  Al10  1  0.38288068  0.25171208  0.86291786  1
  Al  Al11  1  0.63082047  0.62651139  0.31860074  1
  Al  Al12  1  0.87838504  0.84737987  0.69371894  1
  Al  Al13  1  0.04661898  0.46948700  0.42467198  1
  Al  Al14  1  0.14399984  0.93658678  0.09248249  1
  Al  Al15  1  0.83826879  0.27933210  0.01443193  1
  Al  Al16  1  0.08756002  0.59046893  0.22705125  1
  Al  Al17  1  0.30447321  0.33196147  0.06154749  1
  Al  Al18  1  0.73791642  0.09759475  0.33236909  1
  Al  Al19  1  0.14352627  0.37445775  0.21821647  1
  Al  Al20  1  0.80048445  0.76650491  0.46217317  1
  Al  Al21  1  0.49889605  0.07230373  0.90541985  1
  Al  Al22  1  0.24286819  0.84280687  0.89594559  1
  Al  Al23  1  0.31969476  0.41933258  0.39637682  1
  Al  Al24  1  0.86158223  0.32070696  0.36320812  1
  Al  Al25  1  0.83605197  0.38663421  0.79195313  1
  Al  Al26  1  0.75424547  0.90480272  0.06982958  1
  Al  Al27  1  0.13554027  0.05566338  0.30183495  1
  Al  Al28  1  0.80772054  0.20396805  0.57177406  1
  Al  Al29  1  0.20967607  0.38549761  0.82409962  1
  Al  Al30  1  0.24261061  0.62565382  0.41721487  1
  Al  Al31  1  0.37449983  0.91667645  0.12312629  1
  Al  Al32  1  0.64477635  0.28212003  0.39647670  1
  Al  Al33  1  0.03907761  0.72847221  0.80289809  1
  Al  Al34  1  0.38581506  0.72678813  0.79291534  1
  Al  Al35  1  0.56020642  0.77566289  0.15504648  1
  Al  Al36  1  0.43670070  0.16832873  0.10565407  1
  Al  Al37  1  0.64212335  0.27159051  0.85512656  1
  Al  Al38  1  0.99900543  0.52525099  0.92357945  1
  Al  Al39  1  0.97060999  0.21030127  0.21031441  1
  Al  Al40  1  0.14652001  0.06208168  0.54185066  1
  Al  Al41  1  0.47761255  0.36385396  0.25068807  1
  Al  Al42  1  0.51330211  0.93223441  0.72028869  1
  Al  Al43  1  0.11508408  0.71467298  0.03189306  1
  Al  Al44  1  0.34889318  0.81412916  0.58156485  1
  Al  Al45  1  0.92382144  0.82532480  0.96459009  1
  Al  Al46  1  0.26528249  0.75467127  0.22977365  1
  Al  Al47  1  0.54716148  0.46924460  0.47122437  1
  Al  Al48  1  0.79879007  0.76095081  0.23222417  1
  Al  Al49  1  0.03179435  0.48517726  0.70071056  1
  Al  Al50  1  0.95515706  0.12775158  0.42842118  1
  Al  Al51  1  0.44599368  0.25821695  0.48369458  1
  Al  Al52  1  0.16739485  0.65715676  0.62582816  1
  Al  Al53  1  0.37642814  0.55972567  0.23265597  1
  Al  Al54  1  0.60968863  0.82992126  0.55342177  1
  Al  Al55  1  0.69318769  0.61681713  0.58370004  1
  Al  Al56  1  0.53853925  0.35221402  0.02774111  1
  Al  Al57  1  0.43625329  0.38624892  0.68723236  1
  Al  Al58  1  0.20138702  0.87085775  0.41396598  1
  Al  Al59  1  0.35185189  0.05340597  0.48424473  1
  Al  Al60  1  0.90814855  0.98492730  0.23834230  1
  Al  Al61  1  0.67511338  0.22142415  0.15681325  1
  Al  Al62  1  0.41592110  0.50636581  0.88987721  1
  Al  Al63  1  0.70579479  0.08223766  0.72725778  1
  Al  Al64  1  0.55036479  0.56195905  0.09235855  1
  Al  Al65  1  0.30298829  0.01647533  0.72870258  1
  Al  Al66  1  0.43121968  0.88343054  0.36526569  1
  Al  Al67  1  0.52808188  0.85542029  0.94323829  1
  Al  Al68  1  0.12526679  0.86887970  0.64978479  1
  Al  Al69  1  0.05803860  0.96749399  0.85978899  1
  Al  Al70  1  0.14280683  0.17331767  0.82064865  1
  Al  Al71  1  0.05721248  0.32238239  0.97789609  1
  Al  Al72  1  0.64139615  0.32503149  0.63337152  1
  Al  Al73  1  0.73050793  0.89404621  0.83683932  1
  Al  Al74  1  0.68980085  0.69539662  0.98279199  1
  Al  Al75  1  0.58680137  0.01030227  0.13095268  1
  Al  Al76  1  0.58644286  0.05864387  0.51577010  1
  Al  Al77  1  0.82152320  0.63654953  0.81257460  1
  Al  Al78  1  0.40191258  0.58569096  0.61509632  1
  Al  Al79  1  0.20547538  0.51535472  0.05380325  1
  Al  Al80  1  0.13873209  0.26674693  0.42584847  1
  Al  Al81  1  0.36392248  0.69117370  0.03437280  1
  Al  Al82  1  0.48786311  0.15758155  0.68802890  1
  Al  Al83  1  0.21253095  0.60401266  0.84808246  1
  Al  Al84  1  0.92154423  0.64282661  0.60386858  1
  Al  Al85  1  0.78864169  0.97931464  0.52700746  1
  Al  Al86  1  0.97368496  0.05024551  0.66079638  1
  Al  Al87  1  0.28038553  0.05561665  0.95727306  1
  Al  Al88  1  0.84250682  0.55807368  0.37103616  1
  Al  Al89  1  0.46468883  0.67980629  0.43088236  1
  Al  Al90  1  0.03071085  0.69830241  0.42674198  1
  Al  Al91  1  0.93874332  0.05716370  0.02524367  1
  Al  Al92  1  0.03196285  0.27159257  0.63107576  1
  Al  Al93  1  0.65237856  0.89507980  0.33736763  1
  Al  Al94  1  0.72108856  0.09135824  0.96381606  1
  Al  Al95  1  0.69344886  0.43506159  0.22370579  1
  Al  Al96  1  0.62276558  0.50305102  0.78619982  1
  Al  Al97  1  0.98131334  0.90797981  0.44839370  1
  Al  Al98  1  0.21812973  0.44040144  0.59421136  1
  Al  Al99  1  0.48763542  0.09397133  0.30962077  1
