# generated using pymatgen
data_Ho
_symmetry_space_group_name_H-M   'P 1'
_cell_length_a   4.32280800
_cell_length_b   8.76965600
_cell_length_c   9.60130403
_cell_angle_alpha   117.17378139
_cell_angle_beta   103.00968013
_cell_angle_gamma   90.00000000
_symmetry_Int_Tables_number   1
_chemical_formula_structural   Ho
_chemical_formula_sum   Ho4
_cell_volume   313.26828172
_cell_formula_units_Z   4
loop_
 _symmetry_equiv_pos_site_id
 _symmetry_equiv_pos_as_xyz
  1  'x, y, z'
loop_
 _atom_site_type_symbol
 _atom_site_label
 _atom_site_symmetry_multiplicity
 _atom_site_fract_x
 _atom_site_fract_y
 _atom_site_fract_z
 _atom_site_occupancy
  Ho  Ho0  1  1.00000000  0.26414200  1.00000000  1.0
  Ho  Ho1  1  0.79951400  0.29951400  0.59902800  1.0
  Ho  Ho2  1  0.20048600  0.70048600  0.40097200  1.0
  Ho  Ho3  1  0.00000000  0.73585800  0.00000000  1.0
