# generated using pymatgen
data_Tb
_symmetry_space_group_name_H-M   'P 1'
_cell_length_a   4.35617800
_cell_length_b   8.78005000
_cell_length_c   9.59131204
_cell_angle_alpha   117.23933945
_cell_angle_beta   103.12579560
_cell_angle_gamma   90.00000001
_symmetry_Int_Tables_number   1
_chemical_formula_structural   Tb
_chemical_formula_sum   Tb4
_cell_volume   315.34300790
_cell_formula_units_Z   4
loop_
 _symmetry_equiv_pos_site_id
 _symmetry_equiv_pos_as_xyz
  1  'x, y, z'
loop_
 _atom_site_type_symbol
 _atom_site_label
 _atom_site_symmetry_multiplicity
 _atom_site_fract_x
 _atom_site_fract_y
 _atom_site_fract_z
 _atom_site_occupancy
  Tb  Tb0  1  0.29822700  0.29822700  0.59645400  1.0
  Tb  Tb1  1  0.50000000  0.73851700  1.00000000  1.0
  Tb  Tb2  1  0.70177300  0.70177300  0.40354600  1.0
  Tb  Tb3  1  0.50000000  0.26148300  0.00000000  1.0
