# generated using pymatgen
data_Cr
_symmetry_space_group_name_H-M   'P 1'
_cell_length_a   6.89726000
_cell_length_b   6.89726054
_cell_length_c   12.30005800
_cell_angle_alpha   90.00000000
_cell_angle_beta   90.00000000
_cell_angle_gamma   119.99999741
_symmetry_Int_Tables_number   1
_chemical_formula_structural   Cr
_chemical_formula_sum   Cr8
_cell_volume   506.74681925
_cell_formula_units_Z   8
loop_
 _symmetry_equiv_pos_site_id
 _symmetry_equiv_pos_as_xyz
  1  'x, y, z'
loop_
 _atom_site_type_symbol
 _atom_site_label
 _atom_site_symmetry_multiplicity
 _atom_site_fract_x
 _atom_site_fract_y
 _atom_site_fract_z
 _atom_site_occupancy
  Cr  Cr0  1  0.66666667  0.33333333  0.75000000  1.0
  Cr  Cr1  1  0.33333333  0.66666667  0.25000000  1.0
  Cr  Cr2  1  0.00000000  0.00000000  0.00000000  1.0
  Cr  Cr3  1  0.00000000  0.00000000  0.50000000  1.0
  Cr  Cr4  1  0.66666667  0.33333333  0.00724000  1.0
  Cr  Cr5  1  0.66666667  0.33333333  0.49276000  1.0
  Cr  Cr6  1  0.33333333  0.66666667  0.99276000  1.0
  Cr  Cr7  1  0.33333333  0.66666667  0.50724000  1.0
