# generated using pymatgen
data_Gd2Ni
_symmetry_space_group_name_H-M   'P 1'
_cell_length_a   4.05458000
_cell_length_b   4.05457976
_cell_length_c   8.06443600
_cell_angle_alpha   90.00000000
_cell_angle_beta   90.00000000
_cell_angle_gamma   120.00000199
_symmetry_Int_Tables_number   1
_chemical_formula_structural   Gd2Ni
_chemical_formula_sum   'Gd2 Ni1'
_cell_volume   114.81439587
_cell_formula_units_Z   1
loop_
 _symmetry_equiv_pos_site_id
 _symmetry_equiv_pos_as_xyz
  1  'x, y, z'
loop_
 _atom_site_type_symbol
 _atom_site_label
 _atom_site_symmetry_multiplicity
 _atom_site_fract_x
 _atom_site_fract_y
 _atom_site_fract_z
 _atom_site_occupancy
  Gd  Gd0  1  0.00000000  0.00000000  0.25854600  1.0
  Gd  Gd1  1  0.00000000  0.00000000  0.74145400  1.0
  Ni  Ni2  1  0.33333333  0.66666667  0.50000000  1.0
