# generated using pymatgen
data_Fe
_symmetry_space_group_name_H-M   'P 1'
_cell_length_a   5.47642400
_cell_length_b   5.69119600
_cell_length_c   8.42374899
_cell_angle_alpha   109.74329646
_cell_angle_beta   108.96912491
_cell_angle_gamma   90.00000001
_symmetry_Int_Tables_number   1
_chemical_formula_structural   Fe
_chemical_formula_sum   Fe4
_cell_volume   231.90791412
_cell_formula_units_Z   4
loop_
 _symmetry_equiv_pos_site_id
 _symmetry_equiv_pos_as_xyz
  1  'x, y, z'
loop_
 _atom_site_type_symbol
 _atom_site_label
 _atom_site_symmetry_multiplicity
 _atom_site_fract_x
 _atom_site_fract_y
 _atom_site_fract_z
 _atom_site_occupancy
  Fe  Fe0  1  0.01014900  0.00000000  1.00000000  1.0
  Fe  Fe1  1  0.51014900  0.50000000  0.00000000  1.0
  Fe  Fe2  1  0.20869700  0.31945500  0.50000000  1.0
  Fe  Fe3  1  0.70869700  0.68054500  0.50000000  1.0
