# generated using pymatgen
data_Ni
_symmetry_space_group_name_H-M   'P 1'
_cell_length_a   8.42153985
_cell_length_b   8.42153985
_cell_length_c   8.42153985
_cell_angle_alpha   106.74074013
_cell_angle_beta   106.74074013
_cell_angle_gamma   106.74074409
_symmetry_Int_Tables_number   1
_chemical_formula_structural   Ni
_chemical_formula_sum   Ni6
_cell_volume   500.89278629
_cell_formula_units_Z   6
loop_
 _symmetry_equiv_pos_site_id
 _symmetry_equiv_pos_as_xyz
  1  'x, y, z'
loop_
 _atom_site_type_symbol
 _atom_site_label
 _atom_site_symmetry_multiplicity
 _atom_site_fract_x
 _atom_site_fract_y
 _atom_site_fract_z
 _atom_site_occupancy
  Ni  Ni0  1  0.93181600  0.76438600  0.54462600  1.0
  Ni  Ni1  1  0.45704300  0.06725400  0.21891200  1.0
  Ni  Ni2  1  0.76438600  0.54462600  0.93181600  1.0
  Ni  Ni3  1  0.21891200  0.45704300  0.06725400  1.0
  Ni  Ni4  1  0.54462600  0.93181600  0.76438600  1.0
  Ni  Ni5  1  0.06725400  0.21891200  0.45704300  1.0
