# generated using pymatgen
data_SrLaCoRuO6
_symmetry_space_group_name_H-M   'P 1'
_cell_length_a   5.65966300
_cell_length_b   5.65065800
_cell_length_c   9.73637965
_cell_angle_alpha   54.65843709
_cell_angle_beta   90.00000000
_cell_angle_gamma   90.00000000
_symmetry_Int_Tables_number   1
_chemical_formula_structural   SrLaCoRuO6
_chemical_formula_sum   'Sr2 La2 Co2 Ru2 O12'
_cell_volume   253.99621378
_cell_formula_units_Z   2
loop_
 _symmetry_equiv_pos_site_id
 _symmetry_equiv_pos_as_xyz
  1  'x, y, z'
loop_
 _atom_site_type_symbol
 _atom_site_label
 _atom_site_symmetry_multiplicity
 _atom_site_fract_x
 _atom_site_fract_y
 _atom_site_fract_z
 _atom_site_occupancy
  Sr  Sr0  1  0.78055700  0.75593200  0.74941200  1
  Sr  Sr1  1  0.21944300  0.75593200  0.24941200  1
  La  La2  1  0.71124400  0.23795000  0.25202400  1
  La  La3  1  0.28875600  0.23795000  0.75202400  1
  Co  Co4  1  0.75274700  0.00016700  0.99998100  1
  Co  Co5  1  0.24725300  0.00016700  0.49998100  1
  Ru  Ru6  1  0.74998600  0.50033700  0.50011500  1
  Ru  Ru7  1  0.25001400  0.50033700  0.00011500  1
  O  O8  1  0.23873900  0.66197800  0.75508100  1
  O  O9  1  0.76126100  0.66197800  0.25508100  1
  O  O10  1  0.26893500  0.31957500  0.24485800  1
  O  O11  1  0.73106500  0.31957500  0.74485800  1
  O  O12  1  0.53330600  0.19156900  0.53637500  1
  O  O13  1  0.46669400  0.19156900  0.03637500  1
  O  O14  1  0.95599600  0.82319400  0.45863700  1
  O  O15  1  0.04400400  0.82319400  0.95863700  1
  O  O16  1  0.03320900  0.25546400  0.54148100  1
  O  O17  1  0.96679100  0.25546400  0.04148100  1
  O  O18  1  0.47824600  0.75383300  0.46203700  1
  O  O19  1  0.52175400  0.75383300  0.96203700  1
