# generated using pymatgen
data_ErVO4
_symmetry_space_group_name_H-M   'P 1'
_cell_length_a   6.64373210
_cell_length_b   6.64373210
_cell_length_c   6.64373210
_cell_angle_alpha   135.23588180
_cell_angle_beta   135.23588180
_cell_angle_gamma   65.16391264
_symmetry_Int_Tables_number   1
_chemical_formula_structural   ErVO4
_chemical_formula_sum   'Er2 V2 O8'
_cell_volume   143.31094071
_cell_formula_units_Z   2
loop_
 _symmetry_equiv_pos_site_id
 _symmetry_equiv_pos_as_xyz
  1  'x, y, z'
loop_
 _atom_site_type_symbol
 _atom_site_label
 _atom_site_symmetry_multiplicity
 _atom_site_fract_x
 _atom_site_fract_y
 _atom_site_fract_z
 _atom_site_occupancy
  Er  Er0  1  0.50000000  0.50000000  0.00000000  1
  Er  Er1  1  0.25000000  0.75000000  0.50000000  1
  V  V2  1  0.00000000  0.00000000  0.00000000  1
  V  V3  1  0.75000000  0.25000000  0.50000000  1
  O  O4  1  0.93147500  0.82440500  0.59339900  1
  O  O5  1  0.08807600  0.18147500  0.60707000  1
  O  O6  1  0.57440500  0.48100600  0.39293000  1
  O  O7  1  0.23100600  0.33807600  0.40660100  1
  O  O8  1  0.51899400  0.91192400  0.09339900  1
  O  O9  1  0.17559500  0.76899400  0.10707000  1
  O  O10  1  0.66192400  0.06852500  0.89293000  1
  O  O11  1  0.81852500  0.42559500  0.90660100  1
