# generated using pymatgen
data_Ni
_symmetry_space_group_name_H-M   'P 1'
_cell_length_a   5.16619901
_cell_length_b   5.16625276
_cell_length_c   5.52231035
_cell_angle_alpha   62.11352335
_cell_angle_beta   62.11690581
_cell_angle_gamma   60.00496570
_symmetry_Int_Tables_number   1
_chemical_formula_structural   Ni
_chemical_formula_sum   Ni3
_cell_volume   107.43330261
_cell_formula_units_Z   3
loop_
 _symmetry_equiv_pos_site_id
 _symmetry_equiv_pos_as_xyz
  1  'x, y, z'
loop_
 _atom_site_type_symbol
 _atom_site_label
 _atom_site_symmetry_multiplicity
 _atom_site_fract_x
 _atom_site_fract_y
 _atom_site_fract_z
 _atom_site_occupancy
  Ni  Ni0  1  0.49245800  0.49237900  0.52268050  1.0
  Ni  Ni1  1  0.78227950  0.78227400  0.65315150  1.0
  Ni  Ni2  1  0.98607250  0.98595500  0.04198200  1.0
