# generated using pymatgen
data_CeNi2
_symmetry_space_group_name_H-M   'P 1'
_cell_length_a   3.98218800
_cell_length_b   6.23454241
_cell_length_c   6.23454241
_cell_angle_alpha   68.63259730
_cell_angle_beta   71.37547903
_cell_angle_gamma   71.37547903
_symmetry_Int_Tables_number   1
_chemical_formula_structural   CeNi2
_chemical_formula_sum   'Ce1 Ni2'
_cell_volume   132.93434037
_cell_formula_units_Z   1
loop_
 _symmetry_equiv_pos_site_id
 _symmetry_equiv_pos_as_xyz
  1  'x, y, z'
loop_
 _atom_site_type_symbol
 _atom_site_label
 _atom_site_symmetry_multiplicity
 _atom_site_fract_x
 _atom_site_fract_y
 _atom_site_fract_z
 _atom_site_occupancy
  Ce  Ce0  1  0.00000000  0.00000000  0.00000000  1.0
  Ni  Ni1  1  0.24217700  0.25782300  0.25782300  1.0
  Ni  Ni2  1  0.75782300  0.74217700  0.74217700  1.0
