# generated using pymatgen
data_Fe
_symmetry_space_group_name_H-M   'P 1'
_cell_length_a   5.36311508
_cell_length_b   6.63173981
_cell_length_c   6.63173154
_cell_angle_alpha   84.37536190
_cell_angle_beta   76.88564733
_cell_angle_gamma   76.88566371
_symmetry_Int_Tables_number   1
_chemical_formula_structural   Fe
_chemical_formula_sum   Fe2
_cell_volume   223.45712810
_cell_formula_units_Z   2
loop_
 _symmetry_equiv_pos_site_id
 _symmetry_equiv_pos_as_xyz
  1  'x, y, z'
loop_
 _atom_site_type_symbol
 _atom_site_label
 _atom_site_symmetry_multiplicity
 _atom_site_fract_x
 _atom_site_fract_y
 _atom_site_fract_z
 _atom_site_occupancy
  Fe  Fe0  1  0.75000000  0.89793900  0.10206000  1.0
  Fe  Fe1  1  0.25000200  0.10207150  0.89792750  1.0
