# generated using pymatgen
data_SmCu6
_symmetry_space_group_name_H-M   'P 1'
_cell_length_a   5.03038800
_cell_length_b   8.05754200
_cell_length_c   10.10427500
_cell_angle_alpha   90.00000000
_cell_angle_beta   90.00000000
_cell_angle_gamma   90.00000000
_symmetry_Int_Tables_number   1
_chemical_formula_structural   SmCu6
_chemical_formula_sum   'Sm4 Cu24'
_cell_volume   409.55215883
_cell_formula_units_Z   4
loop_
 _symmetry_equiv_pos_site_id
 _symmetry_equiv_pos_as_xyz
  1  'x, y, z'
loop_
 _atom_site_type_symbol
 _atom_site_label
 _atom_site_symmetry_multiplicity
 _atom_site_fract_x
 _atom_site_fract_y
 _atom_site_fract_z
 _atom_site_occupancy
  Sm  Sm0  1  0.75000000  0.23981800  0.06449200  1
  Sm  Sm1  1  0.25000000  0.76018200  0.93550800  1
  Sm  Sm2  1  0.75000000  0.73981800  0.43550800  1
  Sm  Sm3  1  0.25000000  0.26018200  0.56449200  1
  Cu  Cu4  1  0.75000000  0.35353800  0.35754700  1
  Cu  Cu5  1  0.25000000  0.64646200  0.64245300  1
  Cu  Cu6  1  0.75000000  0.85353800  0.14245300  1
  Cu  Cu7  1  0.25000000  0.14646200  0.85754700  1
  Cu  Cu8  1  0.75000000  0.68350900  0.74448000  1
  Cu  Cu9  1  0.25000000  0.31649100  0.25552000  1
  Cu  Cu10  1  0.75000000  0.18350900  0.75552000  1
  Cu  Cu11  1  0.25000000  0.81649100  0.24448000  1
  Cu  Cu12  1  0.75000000  0.93838700  0.90424100  1
  Cu  Cu13  1  0.25000000  0.06161300  0.09575900  1
  Cu  Cu14  1  0.75000000  0.43838700  0.59575900  1
  Cu  Cu15  1  0.25000000  0.56161300  0.40424100  1
  Cu  Cu16  1  0.75000000  0.59854200  0.98337500  1
  Cu  Cu17  1  0.25000000  0.40145800  0.01662500  1
  Cu  Cu18  1  0.75000000  0.09854200  0.51662500  1
  Cu  Cu19  1  0.25000000  0.90145800  0.48337500  1
  Cu  Cu20  1  0.50566700  0.06467200  0.30904400  1
  Cu  Cu21  1  0.00566700  0.93532800  0.69095600  1
  Cu  Cu22  1  0.99433300  0.56467200  0.19095600  1
  Cu  Cu23  1  0.49433300  0.43532800  0.80904400  1
  Cu  Cu24  1  0.49433300  0.93532800  0.69095600  1
  Cu  Cu25  1  0.99433300  0.06467200  0.30904400  1
  Cu  Cu26  1  0.00566700  0.43532800  0.80904400  1
  Cu  Cu27  1  0.50566700  0.56467200  0.19095600  1
