# generated using pymatgen
data_MnNi2
_symmetry_space_group_name_H-M   'P 1'
_cell_length_a   4.21490300
_cell_length_b   5.47428000
_cell_length_c   29.34303500
_cell_angle_alpha   90.00000000
_cell_angle_beta   90.00000000
_cell_angle_gamma   90.00000000
_symmetry_Int_Tables_number   1
_chemical_formula_structural   MnNi2
_chemical_formula_sum   'Mn14 Ni28'
_cell_volume   677.04825503
_cell_formula_units_Z   14
loop_
 _symmetry_equiv_pos_site_id
 _symmetry_equiv_pos_as_xyz
  1  'x, y, z'
loop_
 _atom_site_type_symbol
 _atom_site_label
 _atom_site_symmetry_multiplicity
 _atom_site_fract_x
 _atom_site_fract_y
 _atom_site_fract_z
 _atom_site_occupancy
  Mn  Mn0  1  0.44792700  0.50000000  0.42860500  1.0
  Mn  Mn1  1  0.03326300  0.00000000  0.64303500  1.0
  Mn  Mn2  1  0.96673700  0.00000000  0.35696500  1.0
  Mn  Mn3  1  0.00000000  0.00000000  0.50000000  1.0
  Mn  Mn4  1  0.55302400  0.50000000  0.28604300  1.0
  Mn  Mn5  1  0.53326300  0.50000000  0.85696500  1.0
  Mn  Mn6  1  0.94792700  0.00000000  0.07139500  1.0
  Mn  Mn7  1  0.46673700  0.50000000  0.14303500  1.0
  Mn  Mn8  1  0.05302400  0.00000000  0.21395700  1.0
  Mn  Mn9  1  0.44697600  0.50000000  0.71395700  1.0
  Mn  Mn10  1  0.94697600  0.00000000  0.78604300  1.0
  Mn  Mn11  1  0.50000000  0.50000000  0.00000000  1.0
  Mn  Mn12  1  0.05207300  0.00000000  0.92860500  1.0
  Mn  Mn13  1  0.55207300  0.50000000  0.57139500  1.0
  Ni  Ni14  1  0.44109100  0.75030100  0.78585800  1.0
  Ni  Ni15  1  0.05890900  0.74969900  0.28585800  1.0
  Ni  Ni16  1  0.03828600  0.74942100  0.85734800  1.0
  Ni  Ni17  1  0.44109100  0.24969900  0.78585800  1.0
  Ni  Ni18  1  0.46171400  0.24942100  0.35734800  1.0
  Ni  Ni19  1  0.96171400  0.74942100  0.14265200  1.0
  Ni  Ni20  1  0.94310500  0.25042600  0.42873400  1.0
  Ni  Ni21  1  0.94109100  0.25030100  0.71414200  1.0
  Ni  Ni22  1  0.44310500  0.75042600  0.07126600  1.0
  Ni  Ni23  1  0.94109100  0.74969900  0.71414200  1.0
  Ni  Ni24  1  0.96171400  0.25057900  0.14265200  1.0
  Ni  Ni25  1  0.05890900  0.25030100  0.28585800  1.0
  Ni  Ni26  1  0.55689500  0.75042600  0.92873400  1.0
  Ni  Ni27  1  0.44310500  0.24957400  0.07126600  1.0
  Ni  Ni28  1  0.94310500  0.74957400  0.42873400  1.0
  Ni  Ni29  1  0.05689500  0.74957400  0.57126600  1.0
  Ni  Ni30  1  0.05689500  0.25042600  0.57126600  1.0
  Ni  Ni31  1  0.00000000  0.74965800  0.00000000  1.0
  Ni  Ni32  1  0.53828600  0.75057900  0.64265200  1.0
  Ni  Ni33  1  0.55689500  0.24957400  0.92873400  1.0
  Ni  Ni34  1  0.03828600  0.25057900  0.85734800  1.0
  Ni  Ni35  1  0.46171400  0.75057900  0.35734800  1.0
  Ni  Ni36  1  0.55890900  0.75030100  0.21414200  1.0
  Ni  Ni37  1  0.55890900  0.24969900  0.21414200  1.0
  Ni  Ni38  1  0.00000000  0.25034200  0.00000000  1.0
  Ni  Ni39  1  0.53828600  0.24942100  0.64265200  1.0
  Ni  Ni40  1  0.50000000  0.75034200  0.50000000  1.0
  Ni  Ni41  1  0.50000000  0.24965800  0.50000000  1.0
