# generated using pymatgen
data_GdCr
_symmetry_space_group_name_H-M   'P 1'
_cell_length_a   5.37869800
_cell_length_b   5.62763100
_cell_length_c   7.72483200
_cell_angle_alpha   90.00000000
_cell_angle_beta   90.00000000
_cell_angle_gamma   90.00000000
_symmetry_Int_Tables_number   1
_chemical_formula_structural   GdCr
_chemical_formula_sum   'Gd4 Cr4'
_cell_volume   233.82547050
_cell_formula_units_Z   4
loop_
 _symmetry_equiv_pos_site_id
 _symmetry_equiv_pos_as_xyz
  1  'x, y, z'
loop_
 _atom_site_type_symbol
 _atom_site_label
 _atom_site_symmetry_multiplicity
 _atom_site_fract_x
 _atom_site_fract_y
 _atom_site_fract_z
 _atom_site_occupancy
  Gd  Gd0  1  0.01674800  0.93781100  0.75000000  1.0
  Gd  Gd1  1  0.51674800  0.56218900  0.25000000  1.0
  Gd  Gd2  1  0.48325200  0.43781100  0.75000000  1.0
  Gd  Gd3  1  0.98325200  0.06218900  0.25000000  1.0
  Cr  Cr4  1  0.00000000  0.50000000  0.50000000  1.0
  Cr  Cr5  1  0.50000000  0.00000000  0.50000000  1.0
  Cr  Cr6  1  0.50000000  0.00000000  0.00000000  1.0
  Cr  Cr7  1  0.00000000  0.50000000  0.00000000  1.0
