# generated using pymatgen
data_Co
_symmetry_space_group_name_H-M   'P 1'
_cell_length_a   5.50047944
_cell_length_b   5.66406751
_cell_length_c   7.81299831
_cell_angle_alpha   90.00416640
_cell_angle_beta   89.65787288
_cell_angle_gamma   89.98766795
_symmetry_Int_Tables_number   1
_chemical_formula_structural   Co
_chemical_formula_sum   Co2
_cell_volume   243.41029554
_cell_formula_units_Z   2
loop_
 _symmetry_equiv_pos_site_id
 _symmetry_equiv_pos_as_xyz
  1  'x, y, z'
loop_
 _atom_site_type_symbol
 _atom_site_label
 _atom_site_symmetry_multiplicity
 _atom_site_fract_x
 _atom_site_fract_y
 _atom_site_fract_z
 _atom_site_occupancy
  Co  Co0  1  0.49999650  0.00000450  0.00001600  1.0
  Co  Co1  1  0.99999550  0.49999650  0.50001900  1.0
