# generated using pymatgen
data_Ba2CoReO6
_symmetry_space_group_name_H-M   'P 1'
_cell_length_a   8.18972481
_cell_length_b   10.03299240
_cell_length_c   8.19527166
_cell_angle_alpha   114.04858464
_cell_angle_beta   89.95111893
_cell_angle_gamma   65.93674513
_symmetry_Int_Tables_number   1
_chemical_formula_structural   Ba2CoReO6
_chemical_formula_sum   'Ba8 Co4 Re4 O24'
_cell_volume   550.11621949
_cell_formula_units_Z   4
loop_
 _symmetry_equiv_pos_site_id
 _symmetry_equiv_pos_as_xyz
  1  'x, y, z'
loop_
 _atom_site_type_symbol
 _atom_site_label
 _atom_site_symmetry_multiplicity
 _atom_site_fract_x
 _atom_site_fract_y
 _atom_site_fract_z
 _atom_site_occupancy
  Ba  Ba0  1  0.37541600  0.74960100  0.12501100  1
  Ba  Ba1  1  0.87559300  0.74962800  0.62522500  1
  Ba  Ba2  1  0.62540600  0.24973700  0.37525300  1
  Ba  Ba3  1  0.12551900  0.24971700  0.87507100  1
  Ba  Ba4  1  0.12455700  0.25041500  0.37497100  1
  Ba  Ba5  1  0.62442900  0.25039300  0.87482500  1
  Ba  Ba6  1  0.37452300  0.75026800  0.62491500  1
  Ba  Ba7  1  0.87466500  0.75027000  0.12467400  1
  Co  Co8  1  0.99987900  0.00025400  0.00008300  1
  Co  Co9  1  0.24993100  0.50017600  0.25007600  1
  Co  Co10  1  0.49983900  0.00031900  0.50011600  1
  Co  Co11  1  0.74997600  0.50010000  0.75004200  1
  Re  Re12  1  0.25012200  0.49985000  0.74986700  1
  Re  Re13  1  0.75010000  0.49991400  0.24989800  1
  Re  Re14  1  0.49995600  0.00001300  0.00008400  1
  Re  Re15  1  0.00001100  0.99989200  0.49997500  1
  O  O16  1  0.01189200  0.49972500  0.75019600  1
  O  O17  1  0.51234000  0.49965600  0.25016200  1
  O  O18  1  0.26296600  0.99959700  0.00014900  1
  O  O19  1  0.76294100  0.99952000  0.50011600  1
  O  O20  1  0.36854500  0.26226800  0.63063400  1
  O  O21  1  0.86843300  0.26249200  0.13083500  1
  O  O22  1  0.61818100  0.76269000  0.88109600  1
  O  O23  1  0.11829600  0.76245100  0.38095600  1
  O  O24  1  0.25059600  0.49948300  0.51260800  1
  O  O25  1  0.75058600  0.49960300  0.01289600  1
  O  O26  1  0.50050400  0.99967200  0.76240900  1
  O  O27  1  0.00049800  0.99967700  0.26235200  1
  O  O28  1  0.13134700  0.73752600  0.86931400  1
  O  O29  1  0.63146900  0.73737000  0.36910400  1
  O  O30  1  0.38175000  0.23745000  0.11890100  1
  O  O31  1  0.88188100  0.23726900  0.61875300  1
  O  O32  1  0.24945200  0.50056800  0.98739300  1
  O  O33  1  0.74948400  0.50044100  0.48708500  1
  O  O34  1  0.49952000  0.00030700  0.23765100  1
  O  O35  1  0.99956800  0.00026900  0.73764400  1
  O  O36  1  0.48815900  0.50020000  0.74979200  1
  O  O37  1  0.98771300  0.50024300  0.24981900  1
  O  O38  1  0.73694400  0.00051300  0.00000900  1
  O  O39  1  0.23701300  0.00046500  0.50003800  1
