# generated using pymatgen
data_Eu
_symmetry_space_group_name_H-M   'P 1'
_cell_length_a   5.88373100
_cell_length_b   6.00445672
_cell_length_c   6.07218136
_cell_angle_alpha   79.23233512
_cell_angle_beta   71.06571066
_cell_angle_gamma   75.54119388
_symmetry_Int_Tables_number   1
_chemical_formula_structural   Eu
_chemical_formula_sum   Eu2
_cell_volume   195.17195722
_cell_formula_units_Z   2
loop_
 _symmetry_equiv_pos_site_id
 _symmetry_equiv_pos_as_xyz
  1  'x, y, z'
loop_
 _atom_site_type_symbol
 _atom_site_label
 _atom_site_symmetry_multiplicity
 _atom_site_fract_x
 _atom_site_fract_y
 _atom_site_fract_z
 _atom_site_occupancy
  Eu  Eu0  1  0.66005600  0.67811000  0.64810700  1.0
  Eu  Eu1  1  0.33994400  0.32189000  0.35189300  1.0
