# generated using pymatgen
data_NdCu3Pd2
_symmetry_space_group_name_H-M   'P 1'
_cell_length_a   5.02912600
_cell_length_b   5.18932835
_cell_length_c   5.18932835
_cell_angle_alpha   63.34592086
_cell_angle_beta   61.01607282
_cell_angle_gamma   61.01607282
_symmetry_Int_Tables_number   1
_chemical_formula_structural   NdCu3Pd2
_chemical_formula_sum   'Nd1 Cu3 Pd2'
_cell_volume   99.50340485
_cell_formula_units_Z   1
loop_
 _symmetry_equiv_pos_site_id
 _symmetry_equiv_pos_as_xyz
  1  'x, y, z'
loop_
 _atom_site_type_symbol
 _atom_site_label
 _atom_site_symmetry_multiplicity
 _atom_site_fract_x
 _atom_site_fract_y
 _atom_site_fract_z
 _atom_site_occupancy
  Nd  Nd0  1  0.00124200  0.99875800  0.99875800  1.0
  Cu  Cu1  1  0.87241900  0.37720600  0.37720600  1.0
  Cu  Cu2  1  0.37316900  0.37720600  0.37720600  1.0
  Cu  Cu3  1  0.75168600  0.74831400  0.74831400  1.0
  Pd  Pd4  1  0.37574200  0.87157700  0.37693900  1.0
  Pd  Pd5  1  0.37574200  0.37693900  0.87157700  1.0
