# generated using pymatgen
data_TbCu2
_symmetry_space_group_name_H-M   'P 1'
_cell_length_a   4.31861200
_cell_length_b   5.47771053
_cell_length_c   5.47771053
_cell_angle_alpha   78.36980755
_cell_angle_beta   66.78399581
_cell_angle_gamma   66.78399581
_symmetry_Int_Tables_number   1
_chemical_formula_structural   TbCu2
_chemical_formula_sum   'Tb2 Cu4'
_cell_volume   109.28146413
_cell_formula_units_Z   2
loop_
 _symmetry_equiv_pos_site_id
 _symmetry_equiv_pos_as_xyz
  1  'x, y, z'
loop_
 _atom_site_type_symbol
 _atom_site_label
 _atom_site_symmetry_multiplicity
 _atom_site_fract_x
 _atom_site_fract_y
 _atom_site_fract_z
 _atom_site_occupancy
  Tb  Tb0  1  0.46163700  0.28836300  0.78836300  1.0
  Tb  Tb1  1  0.53836300  0.71163700  0.21163700  1.0
  Cu  Cu2  1  0.83478400  0.71560400  0.61482800  1.0
  Cu  Cu3  1  0.16521600  0.28439600  0.38517200  1.0
  Cu  Cu4  1  0.16521600  0.88517200  0.78439600  1.0
  Cu  Cu5  1  0.83478400  0.11482800  0.21560400  1.0
