# generated using pymatgen
data_Zn(FeO2)2
_symmetry_space_group_name_H-M   'P 1'
_cell_length_a   2.92111000
_cell_length_b   9.05179800
_cell_length_c   10.41372275
_cell_angle_alpha   88.32705953
_cell_angle_beta   90.00000000
_cell_angle_gamma   90.00000000
_symmetry_Int_Tables_number   1
_chemical_formula_structural   Zn(FeO2)2
_chemical_formula_sum   'Zn4 Fe8 O16'
_cell_volume   275.23497663
_cell_formula_units_Z   4
loop_
 _symmetry_equiv_pos_site_id
 _symmetry_equiv_pos_as_xyz
  1  'x, y, z'
loop_
 _atom_site_type_symbol
 _atom_site_label
 _atom_site_symmetry_multiplicity
 _atom_site_fract_x
 _atom_site_fract_y
 _atom_site_fract_z
 _atom_site_occupancy
  Zn  Zn0  1  0.00000000  0.75471300  0.35410600  1
  Zn  Zn1  1  0.50000000  0.24307200  0.65252700  1
  Zn  Zn2  1  0.00000000  0.24910300  0.15234800  1
  Zn  Zn3  1  0.50000000  0.75423000  0.84452900  1
  Fe  Fe4  1  0.50000000  0.59024900  0.10146400  1
  Fe  Fe5  1  0.00000000  0.91568000  0.60155400  1
  Fe  Fe6  1  0.50000000  0.08685000  0.40121600  1
  Fe  Fe7  1  0.00000000  0.40663600  0.89686200  1
  Fe  Fe8  1  0.00000000  0.43225200  0.38304200  1
  Fe  Fe9  1  0.50000000  0.56534000  0.61813500  1
  Fe  Fe10  1  0.00000000  0.94147100  0.12051000  1
  Fe  Fe11  1  0.50000000  0.05760800  0.87808400  1
  O  O12  1  0.50000000  0.09101500  0.06528600  1
  O  O13  1  0.00000000  0.91889700  0.92832400  1
  O  O14  1  0.50000000  0.59422200  0.42647500  1
  O  O15  1  0.00000000  0.40557100  0.57287600  1
  O  O16  1  0.50000000  0.95999300  0.71494500  1
  O  O17  1  0.00000000  0.04519300  0.28632000  1
  O  O18  1  0.50000000  0.46158600  0.78232400  1
  O  O19  1  0.00000000  0.52568500  0.21283600  1
  O  O20  1  0.50000000  0.37640000  0.03352800  1
  O  O21  1  0.00000000  0.62874600  0.96201800  1
  O  O22  1  0.50000000  0.88438400  0.46960800  1
  O  O23  1  0.00000000  0.11691800  0.53248600  1
  O  O24  1  0.00000000  0.19707000  0.82231400  1
  O  O25  1  0.50000000  0.79728400  0.18240800  1
  O  O26  1  0.50000000  0.29021900  0.33113800  1
  O  O27  1  0.00000000  0.70961600  0.67273700  1
