# generated using pymatgen
data_TlFe
_symmetry_space_group_name_H-M   'P 1'
_cell_length_a   5.40263203
_cell_length_b   5.54573300
_cell_length_c   7.92921104
_cell_angle_alpha   90.00021176
_cell_angle_beta   90.01210026
_cell_angle_gamma   89.99902657
_symmetry_Int_Tables_number   1
_chemical_formula_structural   TlFe
_chemical_formula_sum   'Tl4 Fe4'
_cell_volume   237.57148525
_cell_formula_units_Z   4
loop_
 _symmetry_equiv_pos_site_id
 _symmetry_equiv_pos_as_xyz
  1  'x, y, z'
loop_
 _atom_site_type_symbol
 _atom_site_label
 _atom_site_symmetry_multiplicity
 _atom_site_fract_x
 _atom_site_fract_y
 _atom_site_fract_z
 _atom_site_occupancy
  Tl  Tl0  1  0.98236100  0.04984200  0.25000800  1.0
  Tl  Tl1  1  0.48236800  0.45015000  0.74997400  1.0
  Tl  Tl2  1  0.51762700  0.54985300  0.25002600  1.0
  Tl  Tl3  1  0.01763900  0.95015900  0.74999300  1.0
  Fe  Fe4  1  0.99999900  0.49999600  0.99999800  1.0
  Fe  Fe5  1  0.50001000  0.99998800  0.50000400  1.0
  Fe  Fe6  1  0.50000300  0.00000600  0.99999800  1.0
  Fe  Fe7  1  0.00000200  0.49999800  0.49999500  1.0
