# generated using pymatgen
data_Mo
_symmetry_space_group_name_H-M   'P 1'
_cell_length_a   4.26271800
_cell_length_b   4.26271800
_cell_length_c   5.04359459
_cell_angle_alpha   114.99804239
_cell_angle_beta   114.99804239
_cell_angle_gamma   90.00000000
_symmetry_Int_Tables_number   1
_chemical_formula_structural   Mo
_chemical_formula_sum   Mo4
_cell_volume   73.47926555
_cell_formula_units_Z   4
loop_
 _symmetry_equiv_pos_site_id
 _symmetry_equiv_pos_as_xyz
  1  'x, y, z'
loop_
 _atom_site_type_symbol
 _atom_site_label
 _atom_site_symmetry_multiplicity
 _atom_site_fract_x
 _atom_site_fract_y
 _atom_site_fract_z
 _atom_site_occupancy
  Mo  Mo0  1  0.98980100  0.48980100  0.97960200  1.0
  Mo  Mo1  1  0.23980100  0.23980100  0.47960200  1.0
  Mo  Mo2  1  0.51019900  0.01019900  0.02039800  1.0
  Mo  Mo3  1  0.76019900  0.76019900  0.52039800  1.0
