# generated using pymatgen
data_Tb2MnNi
_symmetry_space_group_name_H-M   'P 1'
_cell_length_a   5.29363300
_cell_length_b   5.60573300
_cell_length_c   7.59787631
_cell_angle_alpha   90.00000000
_cell_angle_beta   89.63483088
_cell_angle_gamma   90.00000000
_symmetry_Int_Tables_number   1
_chemical_formula_structural   Tb2MnNi
_chemical_formula_sum   'Tb4 Mn2 Ni2'
_cell_volume   225.46006926
_cell_formula_units_Z   2
loop_
 _symmetry_equiv_pos_site_id
 _symmetry_equiv_pos_as_xyz
  1  'x, y, z'
loop_
 _atom_site_type_symbol
 _atom_site_label
 _atom_site_symmetry_multiplicity
 _atom_site_fract_x
 _atom_site_fract_y
 _atom_site_fract_z
 _atom_site_occupancy
  Tb  Tb0  1  0.51870100  0.57000300  0.25105700  1.0
  Tb  Tb1  1  0.01870100  0.92999700  0.75105700  1.0
  Tb  Tb2  1  0.98129900  0.07000300  0.24894300  1.0
  Tb  Tb3  1  0.48129900  0.42999700  0.74894300  1.0
  Mn  Mn4  1  0.00000000  0.50000000  0.50000000  1.0
  Mn  Mn5  1  0.50000000  0.00000000  1.00000000  1.0
  Ni  Ni6  1  0.50000000  0.00000000  0.50000000  1.0
  Ni  Ni7  1  0.00000000  0.50000000  1.00000000  1.0
