# generated using pymatgen
data_Mn
_symmetry_space_group_name_H-M   'P 1'
_cell_length_a   5.58098835
_cell_length_b   5.58360622
_cell_length_c   10.40741456
_cell_angle_alpha   74.44132205
_cell_angle_beta   89.38481937
_cell_angle_gamma   87.70405572
_symmetry_Int_Tables_number   1
_chemical_formula_structural   Mn
_chemical_formula_sum   Mn4
_cell_volume   312.18131143
_cell_formula_units_Z   4
loop_
 _symmetry_equiv_pos_site_id
 _symmetry_equiv_pos_as_xyz
  1  'x, y, z'
loop_
 _atom_site_type_symbol
 _atom_site_label
 _atom_site_symmetry_multiplicity
 _atom_site_fract_x
 _atom_site_fract_y
 _atom_site_fract_z
 _atom_site_occupancy
  Mn  Mn0  1  0.00005500  0.90154800  0.19702400  1.0
  Mn  Mn1  1  0.49998700  0.59674800  0.80648900  1.0
  Mn  Mn2  1  0.50003500  0.40133700  0.19739500  1.0
  Mn  Mn3  1  0.00000400  0.09503700  0.80990900  1.0
