# generated using pymatgen
data_HoNi3
_symmetry_space_group_name_H-M   'P 1'
_cell_length_a   4.93762832
_cell_length_b   4.93762832
_cell_length_c   8.56610195
_cell_angle_alpha   73.24933044
_cell_angle_beta   73.24933044
_cell_angle_gamma   59.99999581
_symmetry_Int_Tables_number   1
_chemical_formula_structural   HoNi3
_chemical_formula_sum   'Ho3 Ni9'
_cell_volume   170.55413057
_cell_formula_units_Z   3
loop_
 _symmetry_equiv_pos_site_id
 _symmetry_equiv_pos_as_xyz
  1  'x, y, z'
loop_
 _atom_site_type_symbol
 _atom_site_label
 _atom_site_symmetry_multiplicity
 _atom_site_fract_x
 _atom_site_fract_y
 _atom_site_fract_z
 _atom_site_occupancy
  Ho  Ho0  1  0.86106200  0.86106200  0.41681400  1.0
  Ho  Ho1  1  0.13893800  0.13893800  0.58318600  1.0
  Ho  Ho2  1  0.00000000  0.00000000  0.00000000  1.0
  Ni  Ni3  1  0.41726800  0.41726800  0.24650400  1.0
  Ni  Ni4  1  0.41726800  0.91896000  0.24650400  1.0
  Ni  Ni5  1  0.91896000  0.41726800  0.24650400  1.0
  Ni  Ni6  1  0.50000000  0.50000000  0.50000000  1.0
  Ni  Ni7  1  0.33308500  0.33308500  0.00074500  1.0
  Ni  Ni8  1  0.66691500  0.66691500  0.99925500  1.0
  Ni  Ni9  1  0.58273200  0.08104000  0.75349600  1.0
  Ni  Ni10  1  0.58273200  0.58273200  0.75349600  1.0
  Ni  Ni11  1  0.08104000  0.58273200  0.75349600  1.0
