# generated using pymatgen
data_CoRh2
_symmetry_space_group_name_H-M   'P 1'
_cell_length_a   6.10230479
_cell_length_b   6.10229549
_cell_length_c   6.10230532
_cell_angle_alpha   90.00000557
_cell_angle_beta   59.99987868
_cell_angle_gamma   119.99979550
_symmetry_Int_Tables_number   1
_chemical_formula_structural   CoRh2
_chemical_formula_sum   'Co2 Rh4'
_cell_volume   160.68177888
_cell_formula_units_Z   2
loop_
 _symmetry_equiv_pos_site_id
 _symmetry_equiv_pos_as_xyz
  1  'x, y, z'
loop_
 _atom_site_type_symbol
 _atom_site_label
 _atom_site_symmetry_multiplicity
 _atom_site_fract_x
 _atom_site_fract_y
 _atom_site_fract_z
 _atom_site_occupancy
  Co  Co0  1  0.25000100  0.12500000  0.12500000  1.0
  Co  Co1  1  0.75000000  0.87500200  0.87500100  1.0
  Rh  Rh2  1  0.50001300  0.00002000  0.49999300  1.0
  Rh  Rh3  1  0.99998600  0.49999300  0.00002200  1.0
  Rh  Rh4  1  0.99998500  0.49999200  0.49999100  1.0
  Rh  Rh5  1  0.50001600  0.49999400  0.49999200  1.0
