# generated using pymatgen
data_ErNi2
_symmetry_space_group_name_H-M   'P 1'
_cell_length_a   3.51228800
_cell_length_b   3.51228800
_cell_length_c   5.77805085
_cell_angle_alpha   107.69402037
_cell_angle_beta   107.69402036
_cell_angle_gamma   90.00000002
_symmetry_Int_Tables_number   1
_chemical_formula_structural   ErNi2
_chemical_formula_sum   'Er1 Ni2'
_cell_volume   64.35860988
_cell_formula_units_Z   1
loop_
 _symmetry_equiv_pos_site_id
 _symmetry_equiv_pos_as_xyz
  1  'x, y, z'
loop_
 _atom_site_type_symbol
 _atom_site_label
 _atom_site_symmetry_multiplicity
 _atom_site_fract_x
 _atom_site_fract_y
 _atom_site_fract_z
 _atom_site_occupancy
  Er  Er0  1  0.00000000  0.00000000  0.00000000  1.0
  Ni  Ni1  1  0.75000000  0.25000000  0.50000000  1.0
  Ni  Ni2  1  0.25000000  0.75000000  0.50000000  1.0
