# generated using pymatgen
data_Fe
_symmetry_space_group_name_H-M   'P 1'
_cell_length_a   5.81271049
_cell_length_b   5.87984532
_cell_length_c   10.06872686
_cell_angle_alpha   73.02186368
_cell_angle_beta   73.22701253
_cell_angle_gamma   90.00194218
_symmetry_Int_Tables_number   1
_chemical_formula_structural   Fe
_chemical_formula_sum   Fe4
_cell_volume   313.78820474
_cell_formula_units_Z   4
loop_
 _symmetry_equiv_pos_site_id
 _symmetry_equiv_pos_as_xyz
  1  'x, y, z'
loop_
 _atom_site_type_symbol
 _atom_site_label
 _atom_site_symmetry_multiplicity
 _atom_site_fract_x
 _atom_site_fract_y
 _atom_site_fract_z
 _atom_site_occupancy
  Fe  Fe0  1  0.01519200  0.25003800  0.50003000  1.0
  Fe  Fe1  1  0.51530300  0.25000900  0.49996800  1.0
  Fe  Fe2  1  0.48427800  0.75001100  0.49998400  1.0
  Fe  Fe3  1  0.98433000  0.74997400  0.50000900  1.0
