# generated using pymatgen
data_CeCo4
_symmetry_space_group_name_H-M   'P 1'
_cell_length_a   4.99571000
_cell_length_b   4.99571020
_cell_length_c   6.90197200
_cell_angle_alpha   90.00000000
_cell_angle_beta   90.00000000
_cell_angle_gamma   119.99999868
_symmetry_Int_Tables_number   1
_chemical_formula_structural   CeCo4
_chemical_formula_sum   'Ce2 Co8'
_cell_volume   149.17576974
_cell_formula_units_Z   2
loop_
 _symmetry_equiv_pos_site_id
 _symmetry_equiv_pos_as_xyz
  1  'x, y, z'
loop_
 _atom_site_type_symbol
 _atom_site_label
 _atom_site_symmetry_multiplicity
 _atom_site_fract_x
 _atom_site_fract_y
 _atom_site_fract_z
 _atom_site_occupancy
  Ce  Ce0  1  0.00000000  0.00000000  0.50000000  1.0
  Ce  Ce1  1  0.00000000  0.00000000  0.00000000  1.0
  Co  Co2  1  0.66666667  0.33333333  1.00000000  1.0
  Co  Co3  1  0.33333333  0.66666667  1.00000000  1.0
  Co  Co4  1  0.50000000  0.50000000  0.71021200  1.0
  Co  Co5  1  0.50000000  1.00000000  0.71021200  1.0
  Co  Co6  1  1.00000000  0.50000000  0.71021200  1.0
  Co  Co7  1  0.50000000  0.50000000  0.28978800  1.0
  Co  Co8  1  0.50000000  1.00000000  0.28978800  1.0
  Co  Co9  1  1.00000000  0.50000000  0.28978800  1.0
