# generated using pymatgen
data_GdTi
_symmetry_space_group_name_H-M   'P 1'
_cell_length_a   5.41192900
_cell_length_b   5.70620300
_cell_length_c   7.74671900
_cell_angle_alpha   90.00000000
_cell_angle_beta   90.00000000
_cell_angle_gamma   90.00000000
_symmetry_Int_Tables_number   1
_chemical_formula_structural   GdTi
_chemical_formula_sum   'Gd4 Ti4'
_cell_volume   239.23081017
_cell_formula_units_Z   4
loop_
 _symmetry_equiv_pos_site_id
 _symmetry_equiv_pos_as_xyz
  1  'x, y, z'
loop_
 _atom_site_type_symbol
 _atom_site_label
 _atom_site_symmetry_multiplicity
 _atom_site_fract_x
 _atom_site_fract_y
 _atom_site_fract_z
 _atom_site_occupancy
  Gd  Gd0  1  0.98164500  0.06911700  0.25000000  1.0
  Gd  Gd1  1  0.48164500  0.43088300  0.75000000  1.0
  Gd  Gd2  1  0.51835500  0.56911700  0.25000000  1.0
  Gd  Gd3  1  0.01835500  0.93088300  0.75000000  1.0
  Ti  Ti4  1  0.00000000  0.50000000  0.00000000  1.0
  Ti  Ti5  1  0.50000000  0.00000000  0.00000000  1.0
  Ti  Ti6  1  0.50000000  0.00000000  0.50000000  1.0
  Ti  Ti7  1  0.00000000  0.50000000  0.50000000  1.0
