# generated using pymatgen
data_PrV
_symmetry_space_group_name_H-M   'P 1'
_cell_length_a   6.09305300
_cell_length_b   6.29238900
_cell_length_c   13.30209000
_cell_angle_alpha   90.00000000
_cell_angle_beta   90.00000000
_cell_angle_gamma   90.00000000
_symmetry_Int_Tables_number   1
_chemical_formula_structural   PrV
_chemical_formula_sum   'Pr4 V4'
_cell_volume   510.00026397
_cell_formula_units_Z   4
loop_
 _symmetry_equiv_pos_site_id
 _symmetry_equiv_pos_as_xyz
  1  'x, y, z'
loop_
 _atom_site_type_symbol
 _atom_site_label
 _atom_site_symmetry_multiplicity
 _atom_site_fract_x
 _atom_site_fract_y
 _atom_site_fract_z
 _atom_site_occupancy
  Pr  Pr0  1  0.25000000  0.50253700  0.30901500  1.0
  Pr  Pr1  1  0.75000000  0.49746300  0.69098500  1.0
  Pr  Pr2  1  0.25000000  0.00253700  0.69098500  1.0
  Pr  Pr3  1  0.75000000  0.99746300  0.30901500  1.0
  V  V4  1  0.00000000  0.75000000  0.90634900  1.0
  V  V5  1  0.00000000  0.25000000  0.09365100  1.0
  V  V6  1  0.50000000  0.25000000  0.09365100  1.0
  V  V7  1  0.50000000  0.75000000  0.90634900  1.0
