# generated using pymatgen
data_TePb
_symmetry_space_group_name_H-M   'P 1'
_cell_length_a   4.58752200
_cell_length_b   4.65668700
_cell_length_c   13.93414900
_cell_angle_alpha   90.00000000
_cell_angle_beta   90.00000000
_cell_angle_gamma   90.00000000
_symmetry_Int_Tables_number   1
_chemical_formula_structural   TePb
_chemical_formula_sum   'Te4 Pb4'
_cell_volume   297.67040470
_cell_formula_units_Z   4
loop_
 _symmetry_equiv_pos_site_id
 _symmetry_equiv_pos_as_xyz
  1  'x, y, z'
loop_
 _atom_site_type_symbol
 _atom_site_label
 _atom_site_symmetry_multiplicity
 _atom_site_fract_x
 _atom_site_fract_y
 _atom_site_fract_z
 _atom_site_occupancy
  Te  Te0  1  0.94181500  0.75000000  0.37029900  1
  Te  Te1  1  0.55818500  0.75000000  0.87029900  1
  Te  Te2  1  0.05818500  0.25000000  0.62970100  1
  Te  Te3  1  0.44181500  0.25000000  0.12970100  1
  Pb  Pb4  1  0.93360400  0.75000000  0.15211900  1
  Pb  Pb5  1  0.56639600  0.75000000  0.65211900  1
  Pb  Pb6  1  0.06639600  0.25000000  0.84788100  1
  Pb  Pb7  1  0.43360400  0.25000000  0.34788100  1
