# generated using pymatgen
data_Cu
_symmetry_space_group_name_H-M   'P 1'
_cell_length_a   7.43209400
_cell_length_b   8.55545033
_cell_length_c   8.91759800
_cell_angle_alpha   90.00000000
_cell_angle_beta   90.00000000
_cell_angle_gamma   110.35396492
_symmetry_Int_Tables_number   1
_chemical_formula_structural   Cu
_chemical_formula_sum   Cu4
_cell_volume   531.62064811
_cell_formula_units_Z   4
loop_
 _symmetry_equiv_pos_site_id
 _symmetry_equiv_pos_as_xyz
  1  'x, y, z'
loop_
 _atom_site_type_symbol
 _atom_site_label
 _atom_site_symmetry_multiplicity
 _atom_site_fract_x
 _atom_site_fract_y
 _atom_site_fract_z
 _atom_site_occupancy
  Cu  Cu0  1  0.38896400  0.60888200  0.08347500  1.0
  Cu  Cu1  1  0.61103600  0.39111800  0.91652500  1.0
  Cu  Cu2  1  0.11103600  0.89111800  0.58347500  1.0
  Cu  Cu3  1  0.88896400  0.10888200  0.41652500  1.0
