# generated using pymatgen
data_Cu
_symmetry_space_group_name_H-M   'P 1'
_cell_length_a   3.62113173
_cell_length_b   9.26261231
_cell_length_c   10.23856555
_cell_angle_alpha   67.34611701
_cell_angle_beta   81.69476349
_cell_angle_gamma   82.53334546
_symmetry_Int_Tables_number   1
_chemical_formula_structural   Cu
_chemical_formula_sum   Cu5
_cell_volume   312.55448706
_cell_formula_units_Z   5
loop_
 _symmetry_equiv_pos_site_id
 _symmetry_equiv_pos_as_xyz
  1  'x, y, z'
loop_
 _atom_site_type_symbol
 _atom_site_label
 _atom_site_symmetry_multiplicity
 _atom_site_fract_x
 _atom_site_fract_y
 _atom_site_fract_z
 _atom_site_occupancy
  Cu  Cu0  1  0.04207800  0.42205700  0.00407100  1.0
  Cu  Cu1  1  0.09959000  0.60106900  0.65881500  1.0
  Cu  Cu2  1  0.54874800  0.42063400  0.50428800  1.0
  Cu  Cu3  1  0.98134700  0.24137400  0.35317900  1.0
  Cu  Cu4  1  0.05273800  0.92121900  0.50650700  1.0
