# generated using pymatgen
data_Mn2ZnO4
_symmetry_space_group_name_H-M   'P 1'
_cell_length_a   3.00815100
_cell_length_b   9.10823200
_cell_length_c   10.49544100
_cell_angle_alpha   90.00000000
_cell_angle_beta   90.00000000
_cell_angle_gamma   90.00000000
_symmetry_Int_Tables_number   1
_chemical_formula_structural   Mn2ZnO4
_chemical_formula_sum   'Mn8 Zn4 O16'
_cell_volume   287.56392884
_cell_formula_units_Z   4
loop_
 _symmetry_equiv_pos_site_id
 _symmetry_equiv_pos_as_xyz
  1  'x, y, z'
loop_
 _atom_site_type_symbol
 _atom_site_label
 _atom_site_symmetry_multiplicity
 _atom_site_fract_x
 _atom_site_fract_y
 _atom_site_fract_z
 _atom_site_occupancy
  Mn  Mn0  1  0.75000000  0.91645100  0.10515400  1
  Mn  Mn1  1  0.25000000  0.58354900  0.60515400  1
  Mn  Mn2  1  0.75000000  0.41645100  0.39484600  1
  Mn  Mn3  1  0.25000000  0.08354900  0.89484600  1
  Mn  Mn4  1  0.25000000  0.06545500  0.38296200  1
  Mn  Mn5  1  0.75000000  0.93454500  0.61703800  1
  Mn  Mn6  1  0.25000000  0.56545500  0.11703800  1
  Mn  Mn7  1  0.75000000  0.43454500  0.88296200  1
  Zn  Zn8  1  0.25000000  0.74899000  0.34916600  1
  Zn  Zn9  1  0.75000000  0.25101000  0.65083400  1
  Zn  Zn10  1  0.25000000  0.24899000  0.15083400  1
  Zn  Zn11  1  0.75000000  0.75101000  0.84916600  1
  O  O12  1  0.75000000  0.40192600  0.07135900  1
  O  O13  1  0.25000000  0.59807400  0.92864100  1
  O  O14  1  0.75000000  0.90192600  0.42864100  1
  O  O15  1  0.25000000  0.09807400  0.57135900  1
  O  O16  1  0.75000000  0.52223500  0.71534900  1
  O  O17  1  0.25000000  0.47776500  0.28465100  1
  O  O18  1  0.75000000  0.02223500  0.78465100  1
  O  O19  1  0.25000000  0.97776500  0.21534900  1
  O  O20  1  0.75000000  0.11781000  0.03225300  1
  O  O21  1  0.25000000  0.88219000  0.96774700  1
  O  O22  1  0.75000000  0.61781000  0.46774700  1
  O  O23  1  0.25000000  0.38219000  0.53225300  1
  O  O24  1  0.25000000  0.28156600  0.81938900  1
  O  O25  1  0.75000000  0.71843400  0.18061100  1
  O  O26  1  0.75000000  0.21843400  0.31938900  1
  O  O27  1  0.25000000  0.78156600  0.68061100  1
