# generated using pymatgen
data_Fe2Cu
_symmetry_space_group_name_H-M   'P 1'
_cell_length_a   3.69832800
_cell_length_b   3.69832800
_cell_length_c   9.05922400
_cell_angle_alpha   90.00000000
_cell_angle_beta   90.00000000
_cell_angle_gamma   119.99999999
_symmetry_Int_Tables_number   1
_chemical_formula_structural   Fe2Cu
_chemical_formula_sum   'Fe2 Cu1'
_cell_volume   107.30809399
_cell_formula_units_Z   1
loop_
 _symmetry_equiv_pos_site_id
 _symmetry_equiv_pos_as_xyz
  1  'x, y, z'
loop_
 _atom_site_type_symbol
 _atom_site_label
 _atom_site_symmetry_multiplicity
 _atom_site_fract_x
 _atom_site_fract_y
 _atom_site_fract_z
 _atom_site_occupancy
  Fe  Fe0  1  0.00000000  0.00000000  0.75408600  1.0
  Fe  Fe1  1  0.33333333  0.66666667  0.41670300  1.0
  Cu  Cu2  1  0.66666667  0.33333333  0.08051500  1.0
