# generated using pymatgen
data_Ru
_symmetry_space_group_name_H-M   'P 1'
_cell_length_a   4.22939000
_cell_length_b   4.22939000
_cell_length_c   6.10483950
_cell_angle_alpha   110.26706628
_cell_angle_beta   110.26706627
_cell_angle_gamma   90.00000001
_symmetry_Int_Tables_number   1
_chemical_formula_structural   Ru
_chemical_formula_sum   Ru2
_cell_volume   95.20109101
_cell_formula_units_Z   2
loop_
 _symmetry_equiv_pos_site_id
 _symmetry_equiv_pos_as_xyz
  1  'x, y, z'
loop_
 _atom_site_type_symbol
 _atom_site_label
 _atom_site_symmetry_multiplicity
 _atom_site_fract_x
 _atom_site_fract_y
 _atom_site_fract_z
 _atom_site_occupancy
  Ru  Ru0  1  0.75000000  0.25000000  0.50000000  1.0
  Ru  Ru1  1  0.25000000  0.75000000  0.50000000  1.0
