# generated using pymatgen
data_BaNd2NiO5
_symmetry_space_group_name_H-M   'P 1'
_cell_length_a   3.86405797
_cell_length_b   5.98710180
_cell_length_c   6.89674291
_cell_angle_alpha   115.72239409
_cell_angle_beta   106.26777795
_cell_angle_gamma   89.99806836
_symmetry_Int_Tables_number   1
_chemical_formula_structural   BaNd2NiO5
_chemical_formula_sum   'Ba1 Nd2 Ni1 O5'
_cell_volume   136.61772895
_cell_formula_units_Z   1
loop_
 _symmetry_equiv_pos_site_id
 _symmetry_equiv_pos_as_xyz
  1  'x, y, z'
loop_
 _atom_site_type_symbol
 _atom_site_label
 _atom_site_symmetry_multiplicity
 _atom_site_fract_x
 _atom_site_fract_y
 _atom_site_fract_z
 _atom_site_occupancy
  O  O0  1  0.50000024  0.00000056  1.00000064  1
  O  O1  1  0.14503598  0.90353074  0.29009230  1
  O  O2  1  0.85496477  0.09646940  0.70990844  1
  O  O3  1  0.85496008  0.61343769  0.70990158  1
  O  O4  1  0.14504063  0.38656273  0.29010024  1
  Ni  Ni5  1  0.00000011  0.00000031  0.00000085  1
  Ba  Ba6  1  0.50000067  0.50000004  0.00000090  1
  Nd  Nd7  1  0.29721257  0.79727521  0.59451058  1
  Nd  Nd8  1  0.70278769  0.20272240  0.40548652  1
