# generated using pymatgen
data_Tm3Mo2
_symmetry_space_group_name_H-M   'P 1'
_cell_length_a   11.03127200
_cell_length_b   11.03127218
_cell_length_c   17.52411100
_cell_angle_alpha   90.00000000
_cell_angle_beta   90.00000000
_cell_angle_gamma   119.99999945
_symmetry_Int_Tables_number   1
_chemical_formula_structural   Tm3Mo2
_chemical_formula_sum   'Tm12 Mo8'
_cell_volume   1846.79131217
_cell_formula_units_Z   4
loop_
 _symmetry_equiv_pos_site_id
 _symmetry_equiv_pos_as_xyz
  1  'x, y, z'
loop_
 _atom_site_type_symbol
 _atom_site_label
 _atom_site_symmetry_multiplicity
 _atom_site_fract_x
 _atom_site_fract_y
 _atom_site_fract_z
 _atom_site_occupancy
  Tm  Tm0  1  0.53107600  1.00000000  0.09526000  1.0
  Tm  Tm1  1  0.46892400  0.46892400  0.09526000  1.0
  Tm  Tm2  1  1.00000000  0.53107600  0.09526000  1.0
  Tm  Tm3  1  0.46892400  1.00000000  0.90474000  1.0
  Tm  Tm4  1  0.53107600  0.53107600  0.90474000  1.0
  Tm  Tm5  1  0.00000000  0.46892400  0.90474000  1.0
  Tm  Tm6  1  0.46892400  1.00000000  0.59526000  1.0
  Tm  Tm7  1  0.53107600  0.53107600  0.59526000  1.0
  Tm  Tm8  1  0.00000000  0.46892400  0.59526000  1.0
  Tm  Tm9  1  0.53107600  1.00000000  0.40474000  1.0
  Tm  Tm10  1  0.46892400  0.46892400  0.40474000  1.0
  Tm  Tm11  1  1.00000000  0.53107600  0.40474000  1.0
  Mo  Mo12  1  0.72842700  1.00000000  0.25000000  1.0
  Mo  Mo13  1  0.27157300  0.27157300  0.25000000  1.0
  Mo  Mo14  1  0.00000000  0.72842700  0.25000000  1.0
  Mo  Mo15  1  0.27157300  1.00000000  0.75000000  1.0
  Mo  Mo16  1  0.72842700  0.72842700  0.75000000  1.0
  Mo  Mo17  1  0.00000000  0.27157300  0.75000000  1.0
  Mo  Mo18  1  0.00000000  0.00000000  0.00000000  1.0
  Mo  Mo19  1  0.00000000  0.00000000  0.50000000  1.0
