# generated using pymatgen
data_DyCu
_symmetry_space_group_name_H-M   'P 1'
_cell_length_a   4.54228000
_cell_length_b   4.54227925
_cell_length_c   7.28498800
_cell_angle_alpha   90.00000000
_cell_angle_beta   90.00000000
_cell_angle_gamma   120.00000550
_symmetry_Int_Tables_number   1
_chemical_formula_structural   DyCu
_chemical_formula_sum   'Dy2 Cu2'
_cell_volume   130.16888386
_cell_formula_units_Z   2
loop_
 _symmetry_equiv_pos_site_id
 _symmetry_equiv_pos_as_xyz
  1  'x, y, z'
loop_
 _atom_site_type_symbol
 _atom_site_label
 _atom_site_symmetry_multiplicity
 _atom_site_fract_x
 _atom_site_fract_y
 _atom_site_fract_z
 _atom_site_occupancy
  Dy  Dy0  1  0.00000000  0.00000000  0.50195500  1.0
  Dy  Dy1  1  0.00000000  0.00000000  0.00195500  1.0
  Cu  Cu2  1  0.33333333  0.66666667  0.18370400  1.0
  Cu  Cu3  1  0.66666667  0.33333333  0.68370400  1.0
