# generated using pymatgen
data_Yb14Mn
_symmetry_space_group_name_H-M   'P 1'
_cell_length_a   16.14745643
_cell_length_b   16.14745680
_cell_length_c   16.14745594
_cell_angle_alpha   94.24658479
_cell_angle_beta   117.57927585
_cell_angle_gamma   117.57927919
_symmetry_Int_Tables_number   1
_chemical_formula_structural   Yb14Mn
_chemical_formula_sum   'Yb56 Mn4'
_cell_volume   3076.91472592
_cell_formula_units_Z   4
loop_
 _symmetry_equiv_pos_site_id
 _symmetry_equiv_pos_as_xyz
  1  'x, y, z'
loop_
 _atom_site_type_symbol
 _atom_site_label
 _atom_site_symmetry_multiplicity
 _atom_site_fract_x
 _atom_site_fract_y
 _atom_site_fract_z
 _atom_site_occupancy
  Yb  Yb0  1  0.64417017  0.25000000  0.39417017  1.0
  Yb  Yb1  1  0.72951668  0.16278281  0.25230804  1.0
  Yb  Yb2  1  0.77048332  0.74769196  0.83721719  1.0
  Yb  Yb3  1  0.14417017  0.39417017  0.25000000  1.0
  Yb  Yb4  1  0.38323468  0.78504202  0.25409727  1.0
  Yb  Yb5  1  0.08952523  0.02279136  0.75230805  1.0
  Yb  Yb6  1  0.85398254  0.87384824  0.47632545  1.0
  Yb  Yb7  1  0.22951668  0.47720864  0.06673386  1.0
  Yb  Yb8  1  0.89752279  0.02367455  0.87765709  1.0
  Yb  Yb9  1  0.39752279  0.87765709  0.02367455  1.0
  Yb  Yb10  1  0.60247721  0.98013430  0.62615177  1.0
  Yb  Yb11  1  0.27048332  0.93326614  0.52279136  1.0
  Yb  Yb12  1  0.38323468  0.09819266  0.12913741  1.0
  Yb  Yb13  1  0.27048332  0.83721719  0.74769196  1.0
  Yb  Yb14  1  0.10247721  0.62615177  0.98013430  1.0
  Yb  Yb15  1  0.85582983  0.60582983  0.75000000  1.0
  Yb  Yb16  1  0.91047477  0.97720864  0.24769195  1.0
  Yb  Yb17  1  0.41047477  0.66278281  0.43326613  1.0
  Yb  Yb18  1  0.35582983  0.10582983  0.75000000  1.0
  Yb  Yb19  1  0.08952523  0.56673387  0.33721719  1.0
  Yb  Yb20  1  0.89752279  0.37384823  0.01986570  1.0
  Yb  Yb21  1  0.03094475  0.28504202  0.40180734  1.0
  Yb  Yb22  1  0.14601746  0.12615176  0.52367455  1.0
  Yb  Yb23  1  0.64601746  0.62234290  0.51986570  1.0
  Yb  Yb24  1  0.14417017  0.25000000  0.89417017  1.0
  Yb  Yb25  1  0.58952523  0.33721719  0.56673387  1.0
  Yb  Yb26  1  0.88323468  0.25409727  0.78504202  1.0
  Yb  Yb27  1  0.77048332  0.52279136  0.93326614  1.0
  Yb  Yb28  1  0.41047477  0.24769195  0.97720864  1.0
  Yb  Yb29  1  0.39752279  0.01986570  0.37384823  1.0
  Yb  Yb30  1  0.03094475  0.24590273  0.62913741  1.0
  Yb  Yb31  1  0.14601746  0.51986570  0.62234290  1.0
  Yb  Yb32  1  0.58952523  0.75230805  0.02279136  1.0
  Yb  Yb33  1  0.85398254  0.48013430  0.37765710  1.0
  Yb  Yb34  1  0.64417017  0.89417017  0.25000000  1.0
  Yb  Yb35  1  0.60247721  0.12234291  0.97632545  1.0
  Yb  Yb36  1  0.53094475  0.62913741  0.24590273  1.0
  Yb  Yb37  1  0.85582983  0.75000000  0.10582983  1.0
  Yb  Yb38  1  0.10247721  0.97632545  0.12234291  1.0
  Yb  Yb39  1  0.11676532  0.87086259  0.90180734  1.0
  Yb  Yb40  1  0.96905525  0.71495798  0.59819266  1.0
  Yb  Yb41  1  0.72951668  0.06673386  0.47720864  1.0
  Yb  Yb42  1  0.91047477  0.43326613  0.66278281  1.0
  Yb  Yb43  1  0.53094475  0.40180734  0.28504202  1.0
  Yb  Yb44  1  0.35398254  0.37765710  0.48013430  1.0
  Yb  Yb45  1  0.96905525  0.75409727  0.37086259  1.0
  Yb  Yb46  1  0.22951668  0.25230804  0.16278281  1.0
  Yb  Yb47  1  0.46905525  0.59819266  0.71495798  1.0
  Yb  Yb48  1  0.61676532  0.90180734  0.87086259  1.0
  Yb  Yb49  1  0.61676532  0.21495798  0.74590273  1.0
  Yb  Yb50  1  0.46905525  0.37086259  0.75409727  1.0
  Yb  Yb51  1  0.35582983  0.75000000  0.60582983  1.0
  Yb  Yb52  1  0.64601746  0.52367455  0.12615176  1.0
  Yb  Yb53  1  0.35398254  0.47632545  0.87384824  1.0
  Yb  Yb54  1  0.88323468  0.12913741  0.09819266  1.0
  Yb  Yb55  1  0.11676532  0.74590273  0.21495798  1.0
  Mn  Mn56  1  0.75000000  0.87500000  0.62500000  1.0
  Mn  Mn57  1  0.25000000  0.12500000  0.37500000  1.0
  Mn  Mn58  1  0.75000000  0.37500000  0.12500000  1.0
  Mn  Mn59  1  0.25000000  0.62500000  0.87500000  1.0
