# generated using pymatgen
data_Fe
_symmetry_space_group_name_H-M   'P 1'
_cell_length_a   5.37102030
_cell_length_b   6.64715640
_cell_length_c   6.64715640
_cell_angle_alpha   63.76598539
_cell_angle_beta   78.46385042
_cell_angle_gamma   101.53614958
_symmetry_Int_Tables_number   1
_chemical_formula_structural   Fe
_chemical_formula_sum   Fe2
_cell_volume   197.02372270
_cell_formula_units_Z   2
loop_
 _symmetry_equiv_pos_site_id
 _symmetry_equiv_pos_as_xyz
  1  'x, y, z'
loop_
 _atom_site_type_symbol
 _atom_site_label
 _atom_site_symmetry_multiplicity
 _atom_site_fract_x
 _atom_site_fract_y
 _atom_site_fract_z
 _atom_site_occupancy
  Fe  Fe0  1  0.25000000  0.99792000  0.99792000  1.0
  Fe  Fe1  1  0.75000000  0.00208000  0.00208000  1.0
