# generated using pymatgen
data_Cr
_symmetry_space_group_name_H-M   'P 1'
_cell_length_a   3.00741800
_cell_length_b   5.17022715
_cell_length_c   15.62666700
_cell_angle_alpha   90.00000000
_cell_angle_beta   90.00000000
_cell_angle_gamma   106.90825386
_symmetry_Int_Tables_number   1
_chemical_formula_structural   Cr
_chemical_formula_sum   Cr8
_cell_volume   232.47598456
_cell_formula_units_Z   8
loop_
 _symmetry_equiv_pos_site_id
 _symmetry_equiv_pos_as_xyz
  1  'x, y, z'
loop_
 _atom_site_type_symbol
 _atom_site_label
 _atom_site_symmetry_multiplicity
 _atom_site_fract_x
 _atom_site_fract_y
 _atom_site_fract_z
 _atom_site_occupancy
  Cr  Cr0  1  0.36638500  0.73277000  0.95565700  1.0
  Cr  Cr1  1  0.63361500  0.26723000  0.04434300  1.0
  Cr  Cr2  1  0.36638500  0.73277000  0.54434300  1.0
  Cr  Cr3  1  0.63361500  0.26723000  0.45565700  1.0
  Cr  Cr4  1  0.90527900  0.81055800  0.35557300  1.0
  Cr  Cr5  1  0.09472100  0.18944200  0.64442700  1.0
  Cr  Cr6  1  0.09472100  0.18944200  0.85557300  1.0
  Cr  Cr7  1  0.90527900  0.81055800  0.14442700  1.0
