# generated using pymatgen
data_Eu
_symmetry_space_group_name_H-M   'P 1'
_cell_length_a   4.60863800
_cell_length_b   7.74894400
_cell_length_c   8.92239900
_cell_angle_alpha   90.00000000
_cell_angle_beta   90.00000000
_cell_angle_gamma   90.00000000
_symmetry_Int_Tables_number   1
_chemical_formula_structural   Eu
_chemical_formula_sum   Eu4
_cell_volume   318.63740706
_cell_formula_units_Z   4
loop_
 _symmetry_equiv_pos_site_id
 _symmetry_equiv_pos_as_xyz
  1  'x, y, z'
loop_
 _atom_site_type_symbol
 _atom_site_label
 _atom_site_symmetry_multiplicity
 _atom_site_fract_x
 _atom_site_fract_y
 _atom_site_fract_z
 _atom_site_occupancy
  Eu  Eu0  1  0.25000000  0.53315500  0.17812600  1.0
  Eu  Eu1  1  0.75000000  0.46684500  0.82187400  1.0
  Eu  Eu2  1  0.75000000  0.96684500  0.67812600  1.0
  Eu  Eu3  1  0.25000000  0.03315500  0.32187400  1.0
