# generated using pymatgen
data_Nb
_symmetry_space_group_name_H-M   'P 1'
_cell_length_a   5.30247700
_cell_length_b   5.56891000
_cell_length_c   15.14908200
_cell_angle_alpha   90.00000000
_cell_angle_beta   90.00000000
_cell_angle_gamma   90.00000000
_symmetry_Int_Tables_number   1
_chemical_formula_structural   Nb
_chemical_formula_sum   Nb8
_cell_volume   447.33750279
_cell_formula_units_Z   8
loop_
 _symmetry_equiv_pos_site_id
 _symmetry_equiv_pos_as_xyz
  1  'x, y, z'
loop_
 _atom_site_type_symbol
 _atom_site_label
 _atom_site_symmetry_multiplicity
 _atom_site_fract_x
 _atom_site_fract_y
 _atom_site_fract_z
 _atom_site_occupancy
  Nb  Nb0  1  0.24298400  0.23506600  0.62502100  1.0
  Nb  Nb1  1  0.24298400  0.23506600  0.87497900  1.0
  Nb  Nb2  1  0.24298400  0.26493400  0.37497900  1.0
  Nb  Nb3  1  0.24298400  0.26493400  0.12502100  1.0
  Nb  Nb4  1  0.75701600  0.73506600  0.62502100  1.0
  Nb  Nb5  1  0.75701600  0.73506600  0.87497900  1.0
  Nb  Nb6  1  0.75701600  0.76493400  0.37497900  1.0
  Nb  Nb7  1  0.75701600  0.76493400  0.12502100  1.0
