# generated using pymatgen
data_Er2Rh
_symmetry_space_group_name_H-M   'P 1'
_cell_length_a   7.82255400
_cell_length_b   8.13761600
_cell_length_c   8.13761584
_cell_angle_alpha   120.00000064
_cell_angle_beta   90.00000000
_cell_angle_gamma   90.00000000
_symmetry_Int_Tables_number   1
_chemical_formula_structural   Er2Rh
_chemical_formula_sum   'Er8 Rh4'
_cell_volume   448.61477704
_cell_formula_units_Z   4
loop_
 _symmetry_equiv_pos_site_id
 _symmetry_equiv_pos_as_xyz
  1  'x, y, z'
loop_
 _atom_site_type_symbol
 _atom_site_label
 _atom_site_symmetry_multiplicity
 _atom_site_fract_x
 _atom_site_fract_y
 _atom_site_fract_z
 _atom_site_occupancy
  Er  Er0  1  0.75000000  0.01799500  0.50899800  1.0
  Er  Er1  1  0.75000000  0.49100300  0.98200600  1.0
  Er  Er2  1  0.25000000  0.50899700  0.49100200  1.0
  Er  Er3  1  0.25000000  0.98200500  0.49100200  1.0
  Er  Er4  1  0.25000000  0.50899700  0.01799400  1.0
  Er  Er5  1  0.75000000  0.49100300  0.50899800  1.0
  Er  Er6  1  0.25000000  0.00000000  0.00000000  1.0
  Er  Er7  1  0.75000000  0.00000000  0.00000000  1.0
  Rh  Rh8  1  0.96669900  0.66666667  0.33333333  1.0
  Rh  Rh9  1  0.03330100  0.33333333  0.66666667  1.0
  Rh  Rh10  1  0.46669900  0.33333333  0.66666667  1.0
  Rh  Rh11  1  0.53330100  0.66666667  0.33333333  1.0
