# generated using pymatgen
data_TlCr
_symmetry_space_group_name_H-M   'P 1'
_cell_length_a   3.61532385
_cell_length_b   3.61532385
_cell_length_c   7.69632379
_cell_angle_alpha   76.41582983
_cell_angle_beta   76.41582983
_cell_angle_gamma   60.00000278
_symmetry_Int_Tables_number   1
_chemical_formula_structural   TlCr
_chemical_formula_sum   'Tl1 Cr1'
_cell_volume   83.85296269
_cell_formula_units_Z   1
loop_
 _symmetry_equiv_pos_site_id
 _symmetry_equiv_pos_as_xyz
  1  'x, y, z'
loop_
 _atom_site_type_symbol
 _atom_site_label
 _atom_site_symmetry_multiplicity
 _atom_site_fract_x
 _atom_site_fract_y
 _atom_site_fract_z
 _atom_site_occupancy
  Tl  Tl0  1  0.83372900  0.83372900  0.49881300  1.0
  Cr  Cr1  1  0.00017400  0.00017400  0.99947800  1.0
