# generated using pymatgen
data_Ni
_symmetry_space_group_name_H-M   'P 1'
_cell_length_a   2.78777369
_cell_length_b   2.93635485
_cell_length_c   9.73284956
_cell_angle_alpha   90.00020240
_cell_angle_beta   90.00840017
_cell_angle_gamma   61.66318695
_symmetry_Int_Tables_number   1
_chemical_formula_structural   Ni
_chemical_formula_sum   Ni2
_cell_volume   70.12516321
_cell_formula_units_Z   2
loop_
 _symmetry_equiv_pos_site_id
 _symmetry_equiv_pos_as_xyz
  1  'x, y, z'
loop_
 _atom_site_type_symbol
 _atom_site_label
 _atom_site_symmetry_multiplicity
 _atom_site_fract_x
 _atom_site_fract_y
 _atom_site_fract_z
 _atom_site_occupancy
  Ni  Ni0  1  0.33578250  0.32898850  0.00089550  1.0
  Ni  Ni1  1  0.66418200  0.67130650  0.50092450  1.0
