# generated using pymatgen
data_Ru
_symmetry_space_group_name_H-M   'P 1'
_cell_length_a   7.13048200
_cell_length_b   10.84312400
_cell_length_c   11.05575118
_cell_angle_alpha   119.20345530
_cell_angle_beta   90.00000000
_cell_angle_gamma   90.00000000
_symmetry_Int_Tables_number   1
_chemical_formula_structural   Ru
_chemical_formula_sum   Ru8
_cell_volume   746.14358090
_cell_formula_units_Z   8
loop_
 _symmetry_equiv_pos_site_id
 _symmetry_equiv_pos_as_xyz
  1  'x, y, z'
loop_
 _atom_site_type_symbol
 _atom_site_label
 _atom_site_symmetry_multiplicity
 _atom_site_fract_x
 _atom_site_fract_y
 _atom_site_fract_z
 _atom_site_occupancy
  Ru  Ru0  1  0.24457100  0.49969300  0.74922700  1.0
  Ru  Ru1  1  0.74457100  0.50030700  0.75077300  1.0
  Ru  Ru2  1  0.75542900  0.50030700  0.25077300  1.0
  Ru  Ru3  1  0.25542900  0.49969300  0.24922700  1.0
  Ru  Ru4  1  0.22964800  0.99915200  0.75179500  1.0
  Ru  Ru5  1  0.72964800  0.00084800  0.74820500  1.0
  Ru  Ru6  1  0.77035200  0.00084800  0.24820500  1.0
  Ru  Ru7  1  0.27035200  0.99915200  0.25179500  1.0
