# generated using pymatgen
data_DyMn6
_symmetry_space_group_name_H-M   'P 1'
_cell_length_a   5.17754000
_cell_length_b   5.17753985
_cell_length_c   8.14251900
_cell_angle_alpha   90.00000000
_cell_angle_beta   90.00000000
_cell_angle_gamma   120.00000094
_symmetry_Int_Tables_number   1
_chemical_formula_structural   DyMn6
_chemical_formula_sum   'Dy1 Mn6'
_cell_volume   189.03243163
_cell_formula_units_Z   1
loop_
 _symmetry_equiv_pos_site_id
 _symmetry_equiv_pos_as_xyz
  1  'x, y, z'
loop_
 _atom_site_type_symbol
 _atom_site_label
 _atom_site_symmetry_multiplicity
 _atom_site_fract_x
 _atom_site_fract_y
 _atom_site_fract_z
 _atom_site_occupancy
  Dy  Dy0  1  0.00000000  0.00000000  0.00000000  1.0
  Mn  Mn1  1  1.00000000  0.50000000  0.25084100  1.0
  Mn  Mn2  1  0.50000000  0.50000000  0.74915900  1.0
  Mn  Mn3  1  0.50000000  0.00000000  0.74915900  1.0
  Mn  Mn4  1  1.00000000  0.50000000  0.74915900  1.0
  Mn  Mn5  1  0.50000000  0.50000000  0.25084100  1.0
  Mn  Mn6  1  0.50000000  0.00000000  0.25084100  1.0
