# generated using pymatgen
data_Nd2Ir
_symmetry_space_group_name_H-M   'P 1'
_cell_length_a   5.52246600
_cell_length_b   5.73052600
_cell_length_c   7.87428859
_cell_angle_alpha   90.00000000
_cell_angle_beta   90.11762166
_cell_angle_gamma   90.00000000
_symmetry_Int_Tables_number   1
_chemical_formula_structural   Nd2Ir
_chemical_formula_sum   'Nd4 Ir2'
_cell_volume   249.19421186
_cell_formula_units_Z   2
loop_
 _symmetry_equiv_pos_site_id
 _symmetry_equiv_pos_as_xyz
  1  'x, y, z'
loop_
 _atom_site_type_symbol
 _atom_site_label
 _atom_site_symmetry_multiplicity
 _atom_site_fract_x
 _atom_site_fract_y
 _atom_site_fract_z
 _atom_site_occupancy
  Nd  Nd0  1  0.98562600  0.55786600  0.24943100  1.0
  Nd  Nd1  1  0.48562600  0.94213400  0.74943100  1.0
  Nd  Nd2  1  0.01437400  0.44213400  0.75056900  1.0
  Nd  Nd3  1  0.51437400  0.05786600  0.25056900  1.0
  Ir  Ir4  1  0.00000000  1.00000000  0.50000000  1.0
  Ir  Ir5  1  0.50000000  0.50000000  1.00000000  1.0
