# generated using pymatgen
data_Ho2Pd
_symmetry_space_group_name_H-M   'P 1'
_cell_length_a   7.82591700
_cell_length_b   8.20804800
_cell_length_c   8.20804793
_cell_angle_alpha   120.00000029
_cell_angle_beta   90.00000000
_cell_angle_gamma   90.00000000
_symmetry_Int_Tables_number   1
_chemical_formula_structural   Ho2Pd
_chemical_formula_sum   'Ho8 Pd4'
_cell_volume   456.61023218
_cell_formula_units_Z   4
loop_
 _symmetry_equiv_pos_site_id
 _symmetry_equiv_pos_as_xyz
  1  'x, y, z'
loop_
 _atom_site_type_symbol
 _atom_site_label
 _atom_site_symmetry_multiplicity
 _atom_site_fract_x
 _atom_site_fract_y
 _atom_site_fract_z
 _atom_site_occupancy
  Ho  Ho0  1  0.75000000  0.48767500  0.51232400  1.0
  Ho  Ho1  1  0.25000000  0.51232500  0.48767600  1.0
  Ho  Ho2  1  0.75000000  0.02464900  0.51232400  1.0
  Ho  Ho3  1  0.25000000  0.97535100  0.48767600  1.0
  Ho  Ho4  1  0.75000000  0.48767500  0.97535000  1.0
  Ho  Ho5  1  0.25000000  0.51232500  0.02465000  1.0
  Ho  Ho6  1  0.75000000  0.00000000  0.00000000  1.0
  Ho  Ho7  1  0.25000000  0.00000000  0.00000000  1.0
  Pd  Pd8  1  0.95581800  0.66666667  0.33333333  1.0
  Pd  Pd9  1  0.04418200  0.33333333  0.66666667  1.0
  Pd  Pd10  1  0.45581800  0.33333333  0.66666667  1.0
  Pd  Pd11  1  0.54418200  0.66666667  0.33333333  1.0
