# generated using pymatgen
data_EuFe
_symmetry_space_group_name_H-M   'P 1'
_cell_length_a   5.49831100
_cell_length_b   5.58790000
_cell_length_c   7.79632700
_cell_angle_alpha   90.00000000
_cell_angle_beta   90.00000000
_cell_angle_gamma   90.00000000
_symmetry_Int_Tables_number   1
_chemical_formula_structural   EuFe
_chemical_formula_sum   'Eu4 Fe4'
_cell_volume   239.53444459
_cell_formula_units_Z   4
loop_
 _symmetry_equiv_pos_site_id
 _symmetry_equiv_pos_as_xyz
  1  'x, y, z'
loop_
 _atom_site_type_symbol
 _atom_site_label
 _atom_site_symmetry_multiplicity
 _atom_site_fract_x
 _atom_site_fract_y
 _atom_site_fract_z
 _atom_site_occupancy
  Eu  Eu0  1  0.99218200  0.04345200  0.25000000  1.0
  Eu  Eu1  1  0.49218200  0.45654800  0.75000000  1.0
  Eu  Eu2  1  0.50781800  0.54345200  0.25000000  1.0
  Eu  Eu3  1  0.00781800  0.95654800  0.75000000  1.0
  Fe  Fe4  1  0.00000000  0.50000000  0.00000000  1.0
  Fe  Fe5  1  0.50000000  0.00000000  0.00000000  1.0
  Fe  Fe6  1  0.50000000  0.00000000  0.50000000  1.0
  Fe  Fe7  1  0.00000000  0.50000000  0.50000000  1.0
