# generated using pymatgen
data_CeNi
_symmetry_space_group_name_H-M   'P 1'
_cell_length_a   6.26032000
_cell_length_b   12.47588300
_cell_length_c   18.48736100
_cell_angle_alpha   90.00000000
_cell_angle_beta   90.00000000
_cell_angle_gamma   90.00000000
_symmetry_Int_Tables_number   1
_chemical_formula_structural   CeNi
_chemical_formula_sum   'Ce12 Ni12'
_cell_volume   1443.91872339
_cell_formula_units_Z   12
loop_
 _symmetry_equiv_pos_site_id
 _symmetry_equiv_pos_as_xyz
  1  'x, y, z'
loop_
 _atom_site_type_symbol
 _atom_site_label
 _atom_site_symmetry_multiplicity
 _atom_site_fract_x
 _atom_site_fract_y
 _atom_site_fract_z
 _atom_site_occupancy
  Ce  Ce0  1  0.56063800  0.30513700  0.25000000  1.0
  Ce  Ce1  1  0.02685400  0.29992900  0.41645100  1.0
  Ce  Ce2  1  0.97314600  0.70007100  0.58354900  1.0
  Ce  Ce3  1  0.02685400  0.29992900  0.08354900  1.0
  Ce  Ce4  1  0.47314600  0.29992900  0.91645100  1.0
  Ce  Ce5  1  0.06063800  0.69486300  0.25000000  1.0
  Ce  Ce6  1  0.52685400  0.70007100  0.08354900  1.0
  Ce  Ce7  1  0.47314600  0.29992900  0.58354900  1.0
  Ce  Ce8  1  0.52685400  0.70007100  0.41645100  1.0
  Ce  Ce9  1  0.93936200  0.30513700  0.75000000  1.0
  Ce  Ce10  1  0.97314600  0.70007100  0.91645100  1.0
  Ce  Ce11  1  0.43936200  0.69486300  0.75000000  1.0
  Ni  Ni12  1  0.67381400  0.89946300  0.82394400  1.0
  Ni  Ni13  1  0.32618600  0.10053700  0.17605600  1.0
  Ni  Ni14  1  0.82618600  0.89946300  0.17605600  1.0
  Ni  Ni15  1  0.25000000  0.89499400  0.00000000  1.0
  Ni  Ni16  1  0.32618600  0.10053700  0.32394400  1.0
  Ni  Ni17  1  0.17381400  0.10053700  0.67605600  1.0
  Ni  Ni18  1  0.17381400  0.10053700  0.82394400  1.0
  Ni  Ni19  1  0.75000000  0.10500600  0.00000000  1.0
  Ni  Ni20  1  0.75000000  0.10500600  0.50000000  1.0
  Ni  Ni21  1  0.25000000  0.89499400  0.50000000  1.0
  Ni  Ni22  1  0.82618600  0.89946300  0.32394400  1.0
  Ni  Ni23  1  0.67381400  0.89946300  0.67605600  1.0
