# generated using pymatgen
data_NdNb5
_symmetry_space_group_name_H-M   'P 1'
_cell_length_a   3.96739000
_cell_length_b   12.78511700
_cell_length_c   12.78511700
_cell_angle_alpha   90.00000000
_cell_angle_beta   90.00000000
_cell_angle_gamma   90.00000000
_symmetry_Int_Tables_number   1
_chemical_formula_structural   NdNb5
_chemical_formula_sum   'Nd2 Nb10'
_cell_volume   648.50646176
_cell_formula_units_Z   2
loop_
 _symmetry_equiv_pos_site_id
 _symmetry_equiv_pos_as_xyz
  1  'x, y, z'
loop_
 _atom_site_type_symbol
 _atom_site_label
 _atom_site_symmetry_multiplicity
 _atom_site_fract_x
 _atom_site_fract_y
 _atom_site_fract_z
 _atom_site_occupancy
  Nd  Nd0  1  0.50000000  0.00000000  0.00000000  1.0
  Nd  Nd1  1  0.50000000  0.50000000  0.50000000  1.0
  Nb  Nb2  1  0.00000000  0.50000000  0.00000000  1.0
  Nb  Nb3  1  0.00000000  1.00000000  0.50000000  1.0
  Nb  Nb4  1  0.00000000  0.21330700  0.07651300  1.0
  Nb  Nb5  1  0.00000000  0.78669300  0.92348700  1.0
  Nb  Nb6  1  0.00000000  0.07651300  0.78669300  1.0
  Nb  Nb7  1  1.00000000  0.71330700  0.42348700  1.0
  Nb  Nb8  1  1.00000000  0.92348700  0.21330700  1.0
  Nb  Nb9  1  0.00000000  0.28669300  0.57651300  1.0
  Nb  Nb10  1  1.00000000  0.57651300  0.71330700  1.0
  Nb  Nb11  1  1.00000000  0.42348700  0.28669300  1.0
