# generated using pymatgen
data_Co(AsO2)2
_symmetry_space_group_name_H-M   'P 1'
_cell_length_a   8.45711000
_cell_length_b   8.45711000
_cell_length_c   5.78190800
_cell_angle_alpha   90.00000000
_cell_angle_beta   90.00000000
_cell_angle_gamma   90.00000000
_symmetry_Int_Tables_number   1
_chemical_formula_structural   Co(AsO2)2
_chemical_formula_sum   'Co4 As8 O16'
_cell_volume   413.53772654
_cell_formula_units_Z   4
loop_
 _symmetry_equiv_pos_site_id
 _symmetry_equiv_pos_as_xyz
  1  'x, y, z'
loop_
 _atom_site_type_symbol
 _atom_site_label
 _atom_site_symmetry_multiplicity
 _atom_site_fract_x
 _atom_site_fract_y
 _atom_site_fract_z
 _atom_site_occupancy
  Co  Co0  1  0.50000000  0.00000000  0.25000000  1
  Co  Co1  1  0.00000000  0.50000000  0.75000000  1
  Co  Co2  1  0.50000000  0.00000000  0.75000000  1
  Co  Co3  1  0.00000000  0.50000000  0.25000000  1
  As  As4  1  0.17261700  0.18808400  0.00000000  1
  As  As5  1  0.18808400  0.82738300  0.50000000  1
  As  As6  1  0.82738300  0.81191600  0.00000000  1
  As  As7  1  0.81191600  0.17261700  0.50000000  1
  As  As8  1  0.32738300  0.68808400  0.00000000  1
  As  As9  1  0.67261700  0.31191600  0.00000000  1
  As  As10  1  0.68808400  0.67261700  0.50000000  1
  As  As11  1  0.31191600  0.32738300  0.50000000  1
  O  O12  1  0.31730900  0.18269100  0.25000000  1
  O  O13  1  0.18269100  0.68269100  0.75000000  1
  O  O14  1  0.68269100  0.81730900  0.25000000  1
  O  O15  1  0.81730900  0.31730900  0.75000000  1
  O  O16  1  0.68269100  0.81730900  0.75000000  1
  O  O17  1  0.81730900  0.31730900  0.25000000  1
  O  O18  1  0.31730900  0.18269100  0.75000000  1
  O  O19  1  0.18269100  0.68269100  0.25000000  1
  O  O20  1  0.63826100  0.10632200  0.00000000  1
  O  O21  1  0.10632200  0.36173900  0.50000000  1
  O  O22  1  0.36173900  0.89367800  0.00000000  1
  O  O23  1  0.89367800  0.63826100  0.50000000  1
  O  O24  1  0.86173900  0.60632200  0.00000000  1
  O  O25  1  0.13826100  0.39367800  0.00000000  1
  O  O26  1  0.60632200  0.13826100  0.50000000  1
  O  O27  1  0.39367800  0.86173900  0.50000000  1
