# generated using pymatgen
data_Er
_symmetry_space_group_name_H-M   'P 1'
_cell_length_a   10.69694487
_cell_length_b   10.69694487
_cell_length_c   10.69694487
_cell_angle_alpha   109.47122063
_cell_angle_beta   109.47122064
_cell_angle_gamma   109.47122064
_symmetry_Int_Tables_number   1
_chemical_formula_structural   Er
_chemical_formula_sum   Er12
_cell_volume   942.23098533
_cell_formula_units_Z   12
loop_
 _symmetry_equiv_pos_site_id
 _symmetry_equiv_pos_as_xyz
  1  'x, y, z'
loop_
 _atom_site_type_symbol
 _atom_site_label
 _atom_site_symmetry_multiplicity
 _atom_site_fract_x
 _atom_site_fract_y
 _atom_site_fract_z
 _atom_site_occupancy
  Er  Er0  1  0.75000000  0.37500000  0.62500000  1.0
  Er  Er1  1  0.12500000  0.37500000  0.75000000  1.0
  Er  Er2  1  0.37500000  0.12500000  0.25000000  1.0
  Er  Er3  1  0.12500000  0.75000000  0.87500000  1.0
  Er  Er4  1  0.37500000  0.25000000  0.62500000  1.0
  Er  Er5  1  0.25000000  0.12500000  0.87500000  1.0
  Er  Er6  1  0.25000000  0.62500000  0.37500000  1.0
  Er  Er7  1  0.87500000  0.62500000  0.25000000  1.0
  Er  Er8  1  0.62500000  0.87500000  0.75000000  1.0
  Er  Er9  1  0.87500000  0.25000000  0.12500000  1.0
  Er  Er10  1  0.62500000  0.75000000  0.37500000  1.0
  Er  Er11  1  0.75000000  0.87500000  0.12500000  1.0
