# generated using pymatgen
data_Pb
_symmetry_space_group_name_H-M   'P 1'
_cell_length_a   9.13663100
_cell_length_b   9.15090729
_cell_length_c   13.00602348
_cell_angle_alpha   89.95250158
_cell_angle_beta   90.06731781
_cell_angle_gamma   89.86528988
_symmetry_Int_Tables_number   1
_chemical_formula_structural   Pb
_chemical_formula_sum   Pb4
_cell_volume   1087.40950359
_cell_formula_units_Z   4
loop_
 _symmetry_equiv_pos_site_id
 _symmetry_equiv_pos_as_xyz
  1  'x, y, z'
loop_
 _atom_site_type_symbol
 _atom_site_label
 _atom_site_symmetry_multiplicity
 _atom_site_fract_x
 _atom_site_fract_y
 _atom_site_fract_z
 _atom_site_occupancy
  Pb  Pb0  1  0.00134100  0.00022700  0.99863600  1.0
  Pb  Pb1  1  0.50216700  0.49973300  0.49873300  1.0
  Pb  Pb2  1  0.99742000  0.99956100  0.49879200  1.0
  Pb  Pb3  1  0.49962800  0.49894000  0.99879500  1.0
