# generated using pymatgen
data_Tb6Mn23
_symmetry_space_group_name_H-M   'P 1'
_cell_length_a   8.52676733
_cell_length_b   8.52676733
_cell_length_c   8.52676733
_cell_angle_alpha   60.00000000
_cell_angle_beta   60.00000000
_cell_angle_gamma   60.00000000
_symmetry_Int_Tables_number   1
_chemical_formula_structural   Tb6Mn23
_chemical_formula_sum   'Tb6 Mn23'
_cell_volume   438.36739015
_cell_formula_units_Z   1
loop_
 _symmetry_equiv_pos_site_id
 _symmetry_equiv_pos_as_xyz
  1  'x, y, z'
loop_
 _atom_site_type_symbol
 _atom_site_label
 _atom_site_symmetry_multiplicity
 _atom_site_fract_x
 _atom_site_fract_y
 _atom_site_fract_z
 _atom_site_occupancy
  Tb  Tb0  1  0.29522300  0.70477700  0.29522300  1.0
  Tb  Tb1  1  0.70477700  0.29522300  0.29522300  1.0
  Tb  Tb2  1  0.70477700  0.70477700  0.29522300  1.0
  Tb  Tb3  1  0.70477700  0.29522300  0.70477700  1.0
  Tb  Tb4  1  0.29522300  0.70477700  0.70477700  1.0
  Tb  Tb5  1  0.29522300  0.29522300  0.70477700  1.0
  Mn  Mn6  1  0.00000000  0.00000000  0.00000000  1.0
  Mn  Mn7  1  0.50000000  1.00000000  0.50000000  1.0
  Mn  Mn8  1  0.00000000  0.50000000  0.50000000  1.0
  Mn  Mn9  1  1.00000000  1.00000000  0.50000000  1.0
  Mn  Mn10  1  0.00000000  0.50000000  0.00000000  1.0
  Mn  Mn11  1  0.50000000  1.00000000  0.00000000  1.0
  Mn  Mn12  1  0.50000000  0.50000000  0.00000000  1.0
  Mn  Mn13  1  0.87790100  0.87790100  0.36629700  1.0
  Mn  Mn14  1  0.87790100  0.87790100  0.87790100  1.0
  Mn  Mn15  1  0.87790100  0.36629700  0.87790100  1.0
  Mn  Mn16  1  0.36629700  0.87790100  0.87790100  1.0
  Mn  Mn17  1  0.12209900  0.12209900  0.63370300  1.0
  Mn  Mn18  1  0.12209900  0.12209900  0.12209900  1.0
  Mn  Mn19  1  0.12209900  0.63370300  0.12209900  1.0
  Mn  Mn20  1  0.63370300  0.12209900  0.12209900  1.0
  Mn  Mn21  1  0.67767800  0.67767900  0.96696400  1.0
  Mn  Mn22  1  0.67767800  0.67767900  0.67767900  1.0
  Mn  Mn23  1  0.67767800  0.96696400  0.67767900  1.0
  Mn  Mn24  1  0.96696300  0.67767900  0.67767900  1.0
  Mn  Mn25  1  0.32232200  0.32232100  0.03303600  1.0
  Mn  Mn26  1  0.32232200  0.32232100  0.32232100  1.0
  Mn  Mn27  1  0.32232200  0.03303600  0.32232100  1.0
  Mn  Mn28  1  0.03303700  0.32232100  0.32232100  1.0
