# generated using pymatgen
data_Dy3Mo2
_symmetry_space_group_name_H-M   'P 1'
_cell_length_a   11.06196200
_cell_length_b   11.06196104
_cell_length_c   17.60199800
_cell_angle_alpha   90.00000000
_cell_angle_beta   90.00000000
_cell_angle_gamma   120.00000287
_symmetry_Int_Tables_number   1
_chemical_formula_structural   Dy3Mo2
_chemical_formula_sum   'Dy12 Mo8'
_cell_volume   1865.33514648
_cell_formula_units_Z   4
loop_
 _symmetry_equiv_pos_site_id
 _symmetry_equiv_pos_as_xyz
  1  'x, y, z'
loop_
 _atom_site_type_symbol
 _atom_site_label
 _atom_site_symmetry_multiplicity
 _atom_site_fract_x
 _atom_site_fract_y
 _atom_site_fract_z
 _atom_site_occupancy
  Dy  Dy0  1  0.53099500  0.00000000  0.09522700  1.0
  Dy  Dy1  1  0.46900500  0.46900500  0.09522700  1.0
  Dy  Dy2  1  1.00000000  0.53099500  0.09522700  1.0
  Dy  Dy3  1  0.46900500  1.00000000  0.90477300  1.0
  Dy  Dy4  1  0.53099500  0.53099500  0.90477300  1.0
  Dy  Dy5  1  0.00000000  0.46900500  0.90477300  1.0
  Dy  Dy6  1  0.46900500  1.00000000  0.59522700  1.0
  Dy  Dy7  1  0.53099500  0.53099500  0.59522700  1.0
  Dy  Dy8  1  0.00000000  0.46900500  0.59522700  1.0
  Dy  Dy9  1  0.53099500  0.00000000  0.40477300  1.0
  Dy  Dy10  1  0.46900500  0.46900500  0.40477300  1.0
  Dy  Dy11  1  1.00000000  0.53099500  0.40477300  1.0
  Mo  Mo12  1  0.72943300  1.00000000  0.25000000  1.0
  Mo  Mo13  1  0.27056700  0.27056700  0.25000000  1.0
  Mo  Mo14  1  0.00000000  0.72943300  0.25000000  1.0
  Mo  Mo15  1  0.27056700  1.00000000  0.75000000  1.0
  Mo  Mo16  1  0.72943300  0.72943300  0.75000000  1.0
  Mo  Mo17  1  1.00000000  0.27056700  0.75000000  1.0
  Mo  Mo18  1  0.00000000  0.00000000  0.00000000  1.0
  Mo  Mo19  1  0.00000000  0.00000000  0.50000000  1.0
