# generated using pymatgen
data_Tb3Ta2
_symmetry_space_group_name_H-M   'P 1'
_cell_length_a   11.13808400
_cell_length_b   11.13808427
_cell_length_c   17.76921700
_cell_angle_alpha   90.00000000
_cell_angle_beta   90.00000000
_cell_angle_gamma   119.99999921
_symmetry_Int_Tables_number   1
_chemical_formula_structural   Tb3Ta2
_chemical_formula_sum   'Tb12 Ta8'
_cell_volume   1909.06147948
_cell_formula_units_Z   4
loop_
 _symmetry_equiv_pos_site_id
 _symmetry_equiv_pos_as_xyz
  1  'x, y, z'
loop_
 _atom_site_type_symbol
 _atom_site_label
 _atom_site_symmetry_multiplicity
 _atom_site_fract_x
 _atom_site_fract_y
 _atom_site_fract_z
 _atom_site_occupancy
  Tb  Tb0  1  0.47062300  0.47062300  0.40373400  1.0
  Tb  Tb1  1  0.52937700  0.52937700  0.59626600  1.0
  Tb  Tb2  1  1.00000000  0.52937700  0.40373400  1.0
  Tb  Tb3  1  0.52937700  0.52937700  0.90373400  1.0
  Tb  Tb4  1  1.00000000  0.52937700  0.09626600  1.0
  Tb  Tb5  1  1.00000000  0.47062300  0.59626600  1.0
  Tb  Tb6  1  0.47062300  0.47062300  0.09626600  1.0
  Tb  Tb7  1  1.00000000  0.47062300  0.90373400  1.0
  Tb  Tb8  1  0.52937700  1.00000000  0.40373400  1.0
  Tb  Tb9  1  0.47062300  1.00000000  0.59626600  1.0
  Tb  Tb10  1  0.47062300  1.00000000  0.90373400  1.0
  Tb  Tb11  1  0.52937700  1.00000000  0.09626600  1.0
  Ta  Ta12  1  0.00000000  0.00000000  0.50000000  1.0
  Ta  Ta13  1  0.00000000  0.00000000  0.00000000  1.0
  Ta  Ta14  1  0.27414700  0.27414700  0.25000000  1.0
  Ta  Ta15  1  0.72585300  0.72585300  0.75000000  1.0
  Ta  Ta16  1  1.00000000  0.72585300  0.25000000  1.0
  Ta  Ta17  1  1.00000000  0.27414700  0.75000000  1.0
  Ta  Ta18  1  0.72585300  1.00000000  0.25000000  1.0
  Ta  Ta19  1  0.27414700  1.00000000  0.75000000  1.0
