# generated using pymatgen
data_DyCoNi
_symmetry_space_group_name_H-M   'P 1'
_cell_length_a   4.99126000
_cell_length_b   5.03403672
_cell_length_c   5.01834800
_cell_angle_alpha   119.89695951
_cell_angle_beta   89.99999999
_cell_angle_gamma   119.71930088
_symmetry_Int_Tables_number   1
_chemical_formula_structural   DyCoNi
_chemical_formula_sum   'Dy2 Co2 Ni2'
_cell_volume   89.67491592
_cell_formula_units_Z   2
loop_
 _symmetry_equiv_pos_site_id
 _symmetry_equiv_pos_as_xyz
  1  'x, y, z'
loop_
 _atom_site_type_symbol
 _atom_site_label
 _atom_site_symmetry_multiplicity
 _atom_site_fract_x
 _atom_site_fract_y
 _atom_site_fract_z
 _atom_site_occupancy
  Dy  Dy0  1  0.87746000  0.75492000  0.12746000  1.0
  Dy  Dy1  1  0.12254000  0.24508000  0.87254000  1.0
  Co  Co2  1  0.50000000  0.50000000  0.50000000  1.0
  Co  Co3  1  1.00000000  0.50000000  0.50000000  1.0
  Ni  Ni4  1  0.50000000  1.00000000  1.00000000  1.0
  Ni  Ni5  1  0.50000000  0.00000000  0.50000000  1.0
