# generated using pymatgen
data_FePb
_symmetry_space_group_name_H-M   'P 1'
_cell_length_a   6.03230000
_cell_length_b   7.09786200
_cell_length_c   8.56492400
_cell_angle_alpha   90.00000000
_cell_angle_beta   90.00000000
_cell_angle_gamma   90.00000000
_symmetry_Int_Tables_number   1
_chemical_formula_structural   FePb
_chemical_formula_sum   'Fe4 Pb4'
_cell_volume   366.71949410
_cell_formula_units_Z   4
loop_
 _symmetry_equiv_pos_site_id
 _symmetry_equiv_pos_as_xyz
  1  'x, y, z'
loop_
 _atom_site_type_symbol
 _atom_site_label
 _atom_site_symmetry_multiplicity
 _atom_site_fract_x
 _atom_site_fract_y
 _atom_site_fract_z
 _atom_site_occupancy
  Fe  Fe0  1  0.00000000  0.50000000  0.50000000  1.0
  Fe  Fe1  1  0.50000000  0.50000000  0.50000000  1.0
  Fe  Fe2  1  0.50000000  0.00000000  0.00000000  1.0
  Fe  Fe3  1  0.00000000  0.00000000  0.00000000  1.0
  Pb  Pb4  1  0.25000000  0.56144800  0.14728500  1.0
  Pb  Pb5  1  0.75000000  0.43855200  0.85271500  1.0
  Pb  Pb6  1  0.25000000  0.06144800  0.35271500  1.0
  Pb  Pb7  1  0.75000000  0.93855200  0.64728500  1.0
