# generated using pymatgen
data_Co
_symmetry_space_group_name_H-M   'P 1'
_cell_length_a   4.14191200
_cell_length_b   5.21438600
_cell_length_c   5.21438536
_cell_angle_alpha   120.00000407
_cell_angle_beta   90.00000000
_cell_angle_gamma   90.00000000
_symmetry_Int_Tables_number   1
_chemical_formula_structural   Co
_chemical_formula_sum   Co6
_cell_volume   97.52990079
_cell_formula_units_Z   6
loop_
 _symmetry_equiv_pos_site_id
 _symmetry_equiv_pos_as_xyz
  1  'x, y, z'
loop_
 _atom_site_type_symbol
 _atom_site_label
 _atom_site_symmetry_multiplicity
 _atom_site_fract_x
 _atom_site_fract_y
 _atom_site_fract_z
 _atom_site_occupancy
  Co  Co0  1  0.75000000  0.84170900  0.15829100  1.0
  Co  Co1  1  0.75000000  0.31658200  0.15829100  1.0
  Co  Co2  1  0.75000000  0.84170900  0.68341800  1.0
  Co  Co3  1  0.25000000  0.15829100  0.84170900  1.0
  Co  Co4  1  0.25000000  0.68341800  0.84170900  1.0
  Co  Co5  1  0.25000000  0.15829100  0.31658200  1.0
