# generated using pymatgen
data_Cu3Mo
_symmetry_space_group_name_H-M   'P 1'
_cell_length_a   6.93994600
_cell_length_b   7.99152664
_cell_length_c   10.94717900
_cell_angle_alpha   90.00000000
_cell_angle_beta   90.00000000
_cell_angle_gamma   89.92077627
_symmetry_Int_Tables_number   1
_chemical_formula_structural   Cu3Mo
_chemical_formula_sum   'Cu6 Mo2'
_cell_volume   607.13832336
_cell_formula_units_Z   2
loop_
 _symmetry_equiv_pos_site_id
 _symmetry_equiv_pos_as_xyz
  1  'x, y, z'
loop_
 _atom_site_type_symbol
 _atom_site_label
 _atom_site_symmetry_multiplicity
 _atom_site_fract_x
 _atom_site_fract_y
 _atom_site_fract_z
 _atom_site_occupancy
  Cu  Cu0  1  0.10980500  0.09077100  0.25000000  1.0
  Cu  Cu1  1  0.88440300  0.34327600  0.75000000  1.0
  Cu  Cu2  1  0.11559700  0.65672400  0.25000000  1.0
  Cu  Cu3  1  0.54407700  0.87331600  0.25000000  1.0
  Cu  Cu4  1  0.45592300  0.12668400  0.75000000  1.0
  Cu  Cu5  1  0.89019500  0.90922900  0.75000000  1.0
  Mo  Mo6  1  0.57919600  0.37757200  0.25000000  1.0
  Mo  Mo7  1  0.42080400  0.62242800  0.75000000  1.0
