# generated using pymatgen
data_Co
_symmetry_space_group_name_H-M   'P 1'
_cell_length_a   5.85979180
_cell_length_b   5.85983539
_cell_length_c   5.85987439
_cell_angle_alpha   61.59675931
_cell_angle_beta   62.92834431
_cell_angle_gamma   93.96838194
_symmetry_Int_Tables_number   1
_chemical_formula_structural   Co
_chemical_formula_sum   Co6
_cell_volume   146.74220484
_cell_formula_units_Z   6
loop_
 _symmetry_equiv_pos_site_id
 _symmetry_equiv_pos_as_xyz
  1  'x, y, z'
loop_
 _atom_site_type_symbol
 _atom_site_label
 _atom_site_symmetry_multiplicity
 _atom_site_fract_x
 _atom_site_fract_y
 _atom_site_fract_z
 _atom_site_occupancy
  Co  Co0  1  0.37500000  0.62500000  0.75000100  1.0
  Co  Co1  1  0.37500000  0.12500100  0.25000000  1.0
  Co  Co2  1  0.75518500  0.25518300  0.49999800  1.0
  Co  Co3  1  0.99481500  0.99481800  0.00000200  1.0
  Co  Co4  1  0.87499900  0.62500000  0.75000100  1.0
  Co  Co5  1  0.37500000  0.62499900  0.24999900  1.0
