# generated using pymatgen
data_Mn2V2O7
_symmetry_space_group_name_H-M   'P 1'
_cell_length_a   7.00732100
_cell_length_b   8.11020837
_cell_length_c   11.05142315
_cell_angle_alpha   86.94325418
_cell_angle_beta   71.52455608
_cell_angle_gamma   83.68363902
_symmetry_Int_Tables_number   1
_chemical_formula_structural   Mn2V2O7
_chemical_formula_sum   'Mn8 V8 O28'
_cell_volume   591.96138990
_cell_formula_units_Z   4
loop_
 _symmetry_equiv_pos_site_id
 _symmetry_equiv_pos_as_xyz
  1  'x, y, z'
loop_
 _atom_site_type_symbol
 _atom_site_label
 _atom_site_symmetry_multiplicity
 _atom_site_fract_x
 _atom_site_fract_y
 _atom_site_fract_z
 _atom_site_occupancy
  Mn  Mn0  1  0.08154000  0.13947600  0.07841200  1
  Mn  Mn1  1  0.58395000  0.59521400  0.09622800  1
  Mn  Mn2  1  0.40411300  0.40590300  0.40586200  1
  Mn  Mn3  1  0.91846000  0.86052400  0.92158800  1
  Mn  Mn4  1  0.59588700  0.59409700  0.59413800  1
  Mn  Mn5  1  0.89869500  0.88473700  0.41538300  1
  Mn  Mn6  1  0.10130500  0.11526300  0.58461700  1
  Mn  Mn7  1  0.41605000  0.40478600  0.90377200  1
  V  V8  1  0.07533800  0.71758100  0.63560800  1
  V  V9  1  0.05348300  0.59609200  0.15016900  1
  V  V10  1  0.56802000  0.17164200  0.63110400  1
  V  V11  1  0.92466200  0.28241900  0.36439200  1
  V  V12  1  0.94651700  0.40390800  0.84983100  1
  V  V13  1  0.43198000  0.82835800  0.36889600  1
  V  V14  1  0.56490300  0.14890400  0.12935600  1
  V  V15  1  0.43509700  0.85109600  0.87064400  1
  O  O16  1  0.60416200  0.81908200  0.95725800  1
  O  O17  1  0.87780600  0.69398600  0.57743900  1
  O  O18  1  0.51182600  0.01664800  0.75284600  1
  O  O19  1  0.60020000  0.81700700  0.45520900  1
  O  O20  1  0.12060400  0.33085800  0.92917000  1
  O  O21  1  0.12219400  0.30601400  0.42256100  1
  O  O22  1  0.18047500  0.88924200  0.46702600  1
  O  O23  1  0.44772900  0.67622000  0.78628400  1
  O  O24  1  0.18813300  0.91432800  0.96360200  1
  O  O25  1  0.30239900  0.59434000  0.55956800  1
  O  O26  1  0.69760100  0.40566000  0.44043200  1
  O  O27  1  0.81952500  0.11075800  0.53297400  1
  O  O28  1  0.54590500  0.35660700  0.70734900  1
  O  O29  1  0.00152300  0.38795900  0.20617100  1
  O  O30  1  0.30703300  0.57903600  0.05431300  1
  O  O31  1  0.05432500  0.90671900  0.71513800  1
  O  O32  1  0.02659000  0.71448100  0.27567300  1
  O  O33  1  0.81186700  0.08567200  0.03639800  1
  O  O34  1  0.39583800  0.18091800  0.04274200  1
  O  O35  1  0.55227100  0.32378000  0.21371600  1
  O  O36  1  0.94567500  0.09328100  0.28486200  1
  O  O37  1  0.45409500  0.64339300  0.29265100  1
  O  O38  1  0.39980000  0.18299300  0.54479100  1
  O  O39  1  0.48817400  0.98335200  0.24715400  1
  O  O40  1  0.97341000  0.28551900  0.72432700  1
  O  O41  1  0.99847700  0.61204100  0.79382900  1
  O  O42  1  0.69296700  0.42096400  0.94568700  1
  O  O43  1  0.87939600  0.66914200  0.07083000  1
