# generated using pymatgen
data_V2(CoPb)3
_symmetry_space_group_name_H-M   'P 1'
_cell_length_a   5.28148500
_cell_length_b   15.19193073
_cell_length_c   26.23218400
_cell_angle_alpha   90.00000000
_cell_angle_beta   90.00000000
_cell_angle_gamma   89.98220247
_symmetry_Int_Tables_number   1
_chemical_formula_structural   V2(CoPb)3
_chemical_formula_sum   'V12 Co18 Pb18'
_cell_volume   2104.76421432
_cell_formula_units_Z   6
loop_
 _symmetry_equiv_pos_site_id
 _symmetry_equiv_pos_as_xyz
  1  'x, y, z'
loop_
 _atom_site_type_symbol
 _atom_site_label
 _atom_site_symmetry_multiplicity
 _atom_site_fract_x
 _atom_site_fract_y
 _atom_site_fract_z
 _atom_site_occupancy
  V  V0  1  0.54404100  0.16732400  0.83630900  1.0
  V  V1  1  0.45595900  0.83267600  0.83630900  1.0
  V  V2  1  0.45302200  0.33576300  0.33393100  1.0
  V  V3  1  0.54697800  0.66423700  0.33393100  1.0
  V  V4  1  0.55324000  0.16257600  0.17298100  1.0
  V  V5  1  0.44676000  0.83742400  0.17298100  1.0
  V  V6  1  0.46110200  0.33277200  0.67344100  1.0
  V  V7  1  0.53889800  0.66722800  0.67344100  1.0
  V  V8  1  0.50837500  0.17309200  0.50217200  1.0
  V  V9  1  0.49162500  0.82690800  0.50217200  1.0
  V  V10  1  0.45169000  0.32734100  0.00489100  1.0
  V  V11  1  0.54831000  0.67265900  0.00489100  1.0
  Co  Co12  1  0.50000000  0.00000000  0.42478000  1.0
  Co  Co13  1  0.50000000  0.50000000  0.92150500  1.0
  Co  Co14  1  0.50000000  0.00000000  0.08402700  1.0
  Co  Co15  1  0.50000000  0.50000000  0.58241200  1.0
  Co  Co16  1  0.50000000  0.00000000  0.74701500  1.0
  Co  Co17  1  0.50000000  0.50000000  0.24582800  1.0
  Co  Co18  1  0.49919400  0.11874000  0.96221900  1.0
  Co  Co19  1  0.50080600  0.88126000  0.96221900  1.0
  Co  Co20  1  0.51534400  0.61779700  0.45928400  1.0
  Co  Co21  1  0.48465600  0.38220300  0.45928400  1.0
  Co  Co22  1  0.50654500  0.11921400  0.30172700  1.0
  Co  Co23  1  0.49345500  0.88078600  0.30172700  1.0
  Co  Co24  1  0.50429600  0.61867000  0.80058700  1.0
  Co  Co25  1  0.49570400  0.38133000  0.80058700  1.0
  Co  Co26  1  0.49001000  0.12624200  0.62703900  1.0
  Co  Co27  1  0.50999000  0.87375800  0.62703900  1.0
  Co  Co28  1  0.48836600  0.62492100  0.13000500  1.0
  Co  Co29  1  0.51163400  0.37507900  0.13000500  1.0
  Pb  Pb30  1  0.00000000  1.00000000  0.52642600  1.0
  Pb  Pb31  1  0.00000000  0.50000000  0.03703000  1.0
  Pb  Pb32  1  0.00000000  0.00000000  0.21363500  1.0
  Pb  Pb33  1  0.00000000  0.50000000  0.71344900  1.0
  Pb  Pb34  1  0.00000000  0.00000000  0.87134100  1.0
  Pb  Pb35  1  0.00000000  0.50000000  0.37473300  1.0
  Pb  Pb36  1  0.99492900  0.29761400  0.90326900  1.0
  Pb  Pb37  1  0.00507100  0.70238600  0.90326900  1.0
  Pb  Pb38  1  0.98773200  0.79379200  0.40294800  1.0
  Pb  Pb39  1  0.01226800  0.20620800  0.40294800  1.0
  Pb  Pb40  1  0.00476300  0.30472300  0.23293300  1.0
  Pb  Pb41  1  0.99523700  0.69527700  0.23293300  1.0
  Pb  Pb42  1  0.00197500  0.80895100  0.73227300  1.0
  Pb  Pb43  1  0.99802500  0.19104900  0.73227300  1.0
  Pb  Pb44  1  0.01809400  0.30524300  0.57875400  1.0
  Pb  Pb45  1  0.98190600  0.69475700  0.57875400  1.0
  Pb  Pb46  1  0.00091800  0.80510300  0.06799700  1.0
  Pb  Pb47  1  0.99908200  0.19489700  0.06799700  1.0
