# generated using pymatgen
data_Ru
_symmetry_space_group_name_H-M   'P 1'
_cell_length_a   5.42844400
_cell_length_b   5.63838800
_cell_length_c   10.17667473
_cell_angle_alpha   90.00000000
_cell_angle_beta   105.46859240
_cell_angle_gamma   90.00000000
_symmetry_Int_Tables_number   1
_chemical_formula_structural   Ru
_chemical_formula_sum   Ru4
_cell_volume   300.20137790
_cell_formula_units_Z   4
loop_
 _symmetry_equiv_pos_site_id
 _symmetry_equiv_pos_as_xyz
  1  'x, y, z'
loop_
 _atom_site_type_symbol
 _atom_site_label
 _atom_site_symmetry_multiplicity
 _atom_site_fract_x
 _atom_site_fract_y
 _atom_site_fract_z
 _atom_site_occupancy
  Ru  Ru0  1  0.65343300  0.75098800  0.80190600  1.0
  Ru  Ru1  1  0.34656700  0.25098800  0.19809400  1.0
  Ru  Ru2  1  0.14847300  0.25098800  0.80190600  1.0
  Ru  Ru3  1  0.85152700  0.75098800  0.19809400  1.0
