# generated using pymatgen
data_Gd3Ta2
_symmetry_space_group_name_H-M   'P 1'
_cell_length_a   10.91499600
_cell_length_b   10.91499702
_cell_length_c   17.26109000
_cell_angle_alpha   90.00000000
_cell_angle_beta   90.00000000
_cell_angle_gamma   119.99999690
_symmetry_Int_Tables_number   1
_chemical_formula_structural   Gd3Ta2
_chemical_formula_sum   'Gd12 Ta8'
_cell_volume   1780.92678002
_cell_formula_units_Z   4
loop_
 _symmetry_equiv_pos_site_id
 _symmetry_equiv_pos_as_xyz
  1  'x, y, z'
loop_
 _atom_site_type_symbol
 _atom_site_label
 _atom_site_symmetry_multiplicity
 _atom_site_fract_x
 _atom_site_fract_y
 _atom_site_fract_z
 _atom_site_occupancy
  Gd  Gd0  1  0.47002300  0.47002300  0.90510400  1.0
  Gd  Gd1  1  0.47002300  0.00000000  0.40510400  1.0
  Gd  Gd2  1  0.47002300  0.00000000  0.09489600  1.0
  Gd  Gd3  1  0.52997700  0.52997700  0.09489600  1.0
  Gd  Gd4  1  0.52997700  0.00000000  0.59489600  1.0
  Gd  Gd5  1  1.00000000  0.47002300  0.40510400  1.0
  Gd  Gd6  1  0.52997700  0.00000000  0.90510400  1.0
  Gd  Gd7  1  0.52997700  0.52997700  0.40510400  1.0
  Gd  Gd8  1  1.00000000  0.52997700  0.90510400  1.0
  Gd  Gd9  1  0.47002300  0.47002300  0.59489600  1.0
  Gd  Gd10  1  1.00000000  0.52997700  0.59489600  1.0
  Gd  Gd11  1  1.00000000  0.47002300  0.09489600  1.0
  Ta  Ta12  1  0.27217200  0.27217200  0.75000000  1.0
  Ta  Ta13  1  0.27217200  0.00000000  0.25000000  1.0
  Ta  Ta14  1  0.72782800  0.72782800  0.25000000  1.0
  Ta  Ta15  1  1.00000000  0.72782800  0.75000000  1.0
  Ta  Ta16  1  0.00000000  0.00000000  0.00000000  1.0
  Ta  Ta17  1  0.72782800  0.00000000  0.75000000  1.0
  Ta  Ta18  1  1.00000000  0.27217200  0.25000000  1.0
  Ta  Ta19  1  0.00000000  0.00000000  0.50000000  1.0
