# generated using pymatgen
data_GdCu
_symmetry_space_group_name_H-M   'P 1'
_cell_length_a   4.03332200
_cell_length_b   4.08461400
_cell_length_c   4.08461358
_cell_angle_alpha   120.00000343
_cell_angle_beta   90.00000000
_cell_angle_gamma   90.00000000
_symmetry_Int_Tables_number   1
_chemical_formula_structural   GdCu
_chemical_formula_sum   'Gd1 Cu1'
_cell_volume   58.27677507
_cell_formula_units_Z   1
loop_
 _symmetry_equiv_pos_site_id
 _symmetry_equiv_pos_as_xyz
  1  'x, y, z'
loop_
 _atom_site_type_symbol
 _atom_site_label
 _atom_site_symmetry_multiplicity
 _atom_site_fract_x
 _atom_site_fract_y
 _atom_site_fract_z
 _atom_site_occupancy
  Gd  Gd0  1  0.00000000  0.33333333  0.66666667  1.0
  Cu  Cu1  1  0.50000000  0.00000000  0.00000000  1.0
