# generated using pymatgen
data_TbCu
_symmetry_space_group_name_H-M   'P 1'
_cell_length_a   3.65066300
_cell_length_b   7.65650300
_cell_length_c   7.65650300
_cell_angle_alpha   90.00000000
_cell_angle_beta   90.00000000
_cell_angle_gamma   90.00000000
_symmetry_Int_Tables_number   1
_chemical_formula_structural   TbCu
_chemical_formula_sum   'Tb4 Cu4'
_cell_volume   214.00930580
_cell_formula_units_Z   4
loop_
 _symmetry_equiv_pos_site_id
 _symmetry_equiv_pos_as_xyz
  1  'x, y, z'
loop_
 _atom_site_type_symbol
 _atom_site_label
 _atom_site_symmetry_multiplicity
 _atom_site_fract_x
 _atom_site_fract_y
 _atom_site_fract_z
 _atom_site_occupancy
  Tb  Tb0  1  0.50000000  0.67690500  0.17690500  1.0
  Tb  Tb1  1  0.50000000  0.32309500  0.82309500  1.0
  Tb  Tb2  1  0.50000000  0.17690500  0.32309500  1.0
  Tb  Tb3  1  0.50000000  0.82309500  0.67690500  1.0
  Cu  Cu4  1  0.00000000  0.11682900  0.61682900  1.0
  Cu  Cu5  1  0.00000000  0.88317100  0.38317100  1.0
  Cu  Cu6  1  0.00000000  0.61682900  0.88317100  1.0
  Cu  Cu7  1  0.00000000  0.38317100  0.11682900  1.0
