# generated using pymatgen
data_TbMn4Cu3
_symmetry_space_group_name_H-M   'P 1'
_cell_length_a   6.42016675
_cell_length_b   6.42016675
_cell_length_c   6.42016675
_cell_angle_alpha   109.47122063
_cell_angle_beta   109.47122064
_cell_angle_gamma   109.47122064
_symmetry_Int_Tables_number   1
_chemical_formula_structural   TbMn4Cu3
_chemical_formula_sum   'Tb1 Mn4 Cu3'
_cell_volume   203.71219745
_cell_formula_units_Z   1
loop_
 _symmetry_equiv_pos_site_id
 _symmetry_equiv_pos_as_xyz
  1  'x, y, z'
loop_
 _atom_site_type_symbol
 _atom_site_label
 _atom_site_symmetry_multiplicity
 _atom_site_fract_x
 _atom_site_fract_y
 _atom_site_fract_z
 _atom_site_occupancy
  Tb  Tb0  1  0.00000000  0.00000000  0.00000000  1.0
  Mn  Mn1  1  0.50000000  1.00000000  1.00000000  1.0
  Mn  Mn2  1  1.00000000  1.00000000  0.50000000  1.0
  Mn  Mn3  1  0.00000000  0.50000000  0.00000000  1.0
  Mn  Mn4  1  0.50000000  0.50000000  0.50000000  1.0
  Cu  Cu5  1  0.00000000  0.50000000  0.50000000  1.0
  Cu  Cu6  1  0.50000000  0.50000000  1.00000000  1.0
  Cu  Cu7  1  0.50000000  1.00000000  0.50000000  1.0
