# generated using pymatgen
data_Rb
_symmetry_space_group_name_H-M   'P 1'
_cell_length_a   12.59973667
_cell_length_b   12.59973667
_cell_length_c   12.59973695
_cell_angle_alpha   23.23648127
_cell_angle_beta   23.23648127
_cell_angle_gamma   23.23648090
_symmetry_Int_Tables_number   1
_chemical_formula_structural   Rb
_chemical_formula_sum   Rb3
_cell_volume   273.32395804
_cell_formula_units_Z   3
loop_
 _symmetry_equiv_pos_site_id
 _symmetry_equiv_pos_as_xyz
  1  'x, y, z'
loop_
 _atom_site_type_symbol
 _atom_site_label
 _atom_site_symmetry_multiplicity
 _atom_site_fract_x
 _atom_site_fract_y
 _atom_site_fract_z
 _atom_site_occupancy
  Rb  Rb0  1  0.00000000  0.00000000  0.00000000  1
  Rb  Rb1  1  0.77779900  0.77779900  0.77779900  1
  Rb  Rb2  1  0.22220100  0.22220100  0.22220100  1
