# generated using pymatgen
data_NdCu
_symmetry_space_group_name_H-M   'P 1'
_cell_length_a   4.10099700
_cell_length_b   7.59920599
_cell_length_c   7.59920561
_cell_angle_alpha   120.00000168
_cell_angle_beta   90.00000000
_cell_angle_gamma   90.00000000
_symmetry_Int_Tables_number   1
_chemical_formula_structural   NdCu
_chemical_formula_sum   'Nd3 Cu3'
_cell_volume   205.09566854
_cell_formula_units_Z   3
loop_
 _symmetry_equiv_pos_site_id
 _symmetry_equiv_pos_as_xyz
  1  'x, y, z'
loop_
 _atom_site_type_symbol
 _atom_site_label
 _atom_site_symmetry_multiplicity
 _atom_site_fract_x
 _atom_site_fract_y
 _atom_site_fract_z
 _atom_site_occupancy
  Nd  Nd0  1  0.50000000  1.00000000  0.58660100  1.0
  Nd  Nd1  1  0.50000000  0.58660100  0.00000000  1.0
  Nd  Nd2  1  0.50000000  0.41339900  0.41339900  1.0
  Cu  Cu3  1  0.00000000  0.66666667  0.33333333  1.0
  Cu  Cu4  1  0.50000000  0.00000000  0.00000000  1.0
  Cu  Cu5  1  0.00000000  0.33333333  0.66666667  1.0
