# generated using pymatgen
data_Fe
_symmetry_space_group_name_H-M   'P 1'
_cell_length_a   5.01314600
_cell_length_b   6.61264340
_cell_length_c   6.61264340
_cell_angle_alpha   81.73887984
_cell_angle_beta   67.72467709
_cell_angle_gamma   67.72467710
_symmetry_Int_Tables_number   1
_chemical_formula_structural   Fe
_chemical_formula_sum   Fe4
_cell_volume   187.71296336
_cell_formula_units_Z   4
loop_
 _symmetry_equiv_pos_site_id
 _symmetry_equiv_pos_as_xyz
  1  'x, y, z'
loop_
 _atom_site_type_symbol
 _atom_site_label
 _atom_site_symmetry_multiplicity
 _atom_site_fract_x
 _atom_site_fract_y
 _atom_site_fract_z
 _atom_site_occupancy
  Fe  Fe0  1  0.00000000  1.00000000  0.50000000  1.0
  Fe  Fe1  1  1.00000000  0.50000000  0.00000000  1.0
  Fe  Fe2  1  0.50000000  0.50000000  0.00000000  1.0
  Fe  Fe3  1  0.50000000  1.00000000  0.50000000  1.0
