# generated using pymatgen
data_TiFe
_symmetry_space_group_name_H-M   'P 1'
_cell_length_a   5.23280200
_cell_length_b   5.29105900
_cell_length_c   7.54040100
_cell_angle_alpha   90.00000000
_cell_angle_beta   90.00000000
_cell_angle_gamma   90.00000000
_symmetry_Int_Tables_number   1
_chemical_formula_structural   TiFe
_chemical_formula_sum   'Ti4 Fe4'
_cell_volume   208.77156596
_cell_formula_units_Z   4
loop_
 _symmetry_equiv_pos_site_id
 _symmetry_equiv_pos_as_xyz
  1  'x, y, z'
loop_
 _atom_site_type_symbol
 _atom_site_label
 _atom_site_symmetry_multiplicity
 _atom_site_fract_x
 _atom_site_fract_y
 _atom_site_fract_z
 _atom_site_occupancy
  Ti  Ti0  1  0.50000000  0.00000000  0.00000000  1.0
  Ti  Ti1  1  0.00000000  0.50000000  0.00000000  1.0
  Ti  Ti2  1  0.00000000  0.50000000  0.50000000  1.0
  Ti  Ti3  1  0.50000000  0.00000000  0.50000000  1.0
  Fe  Fe4  1  0.50799000  0.46044700  0.75000000  1.0
  Fe  Fe5  1  0.00799000  0.03955300  0.25000000  1.0
  Fe  Fe6  1  0.99201000  0.96044700  0.75000000  1.0
  Fe  Fe7  1  0.49201000  0.53955300  0.25000000  1.0
