# generated using pymatgen
data_EuIr4
_symmetry_space_group_name_H-M   'P 1'
_cell_length_a   6.63908276
_cell_length_b   6.63908276
_cell_length_c   6.63908276
_cell_angle_alpha   83.33812146
_cell_angle_beta   63.76875771
_cell_angle_gamma   116.23124229
_symmetry_Int_Tables_number   1
_chemical_formula_structural   EuIr4
_chemical_formula_sum   'Eu1 Ir4'
_cell_volume   217.12058412
_cell_formula_units_Z   1
loop_
 _symmetry_equiv_pos_site_id
 _symmetry_equiv_pos_as_xyz
  1  'x, y, z'
loop_
 _atom_site_type_symbol
 _atom_site_label
 _atom_site_symmetry_multiplicity
 _atom_site_fract_x
 _atom_site_fract_y
 _atom_site_fract_z
 _atom_site_occupancy
  Eu  Eu0  1  0.00000000  0.00000000  0.00000000  1.0
  Ir  Ir1  1  0.00000000  0.75952400  0.55558500  1.0
  Ir  Ir2  1  0.00000000  0.44441500  0.24047600  1.0
  Ir  Ir3  1  0.31510900  0.55558500  0.44441500  1.0
  Ir  Ir4  1  0.68489100  0.24047600  0.75952400  1.0
