# generated using pymatgen
data_NdCr
_symmetry_space_group_name_H-M   'P 1'
_cell_length_a   5.87993700
_cell_length_b   7.58483500
_cell_length_c   8.63670600
_cell_angle_alpha   90.00000000
_cell_angle_beta   90.00000000
_cell_angle_gamma   90.00000000
_symmetry_Int_Tables_number   1
_chemical_formula_structural   NdCr
_chemical_formula_sum   'Nd4 Cr4'
_cell_volume   385.18285392
_cell_formula_units_Z   4
loop_
 _symmetry_equiv_pos_site_id
 _symmetry_equiv_pos_as_xyz
  1  'x, y, z'
loop_
 _atom_site_type_symbol
 _atom_site_label
 _atom_site_symmetry_multiplicity
 _atom_site_fract_x
 _atom_site_fract_y
 _atom_site_fract_z
 _atom_site_occupancy
  Nd  Nd0  1  0.50000000  0.35863800  0.32582400  1.0
  Nd  Nd1  1  0.50000000  0.64136200  0.67417600  1.0
  Nd  Nd2  1  0.50000000  0.14136200  0.82582400  1.0
  Nd  Nd3  1  0.50000000  0.85863800  0.17417600  1.0
  Cr  Cr4  1  0.24658000  0.00000000  0.50000000  1.0
  Cr  Cr5  1  0.75342000  0.00000000  0.50000000  1.0
  Cr  Cr6  1  0.75342000  0.50000000  0.00000000  1.0
  Cr  Cr7  1  0.24658000  0.50000000  0.00000000  1.0
