# generated using pymatgen
data_Fe
_symmetry_space_group_name_H-M   'P 1'
_cell_length_a   6.32560105
_cell_length_b   6.32560105
_cell_length_c   7.84111013
_cell_angle_alpha   77.23665330
_cell_angle_beta   77.23665330
_cell_angle_gamma   74.59180508
_symmetry_Int_Tables_number   1
_chemical_formula_structural   Fe
_chemical_formula_sum   Fe9
_cell_volume   290.57331213
_cell_formula_units_Z   9
loop_
 _symmetry_equiv_pos_site_id
 _symmetry_equiv_pos_as_xyz
  1  'x, y, z'
loop_
 _atom_site_type_symbol
 _atom_site_label
 _atom_site_symmetry_multiplicity
 _atom_site_fract_x
 _atom_site_fract_y
 _atom_site_fract_z
 _atom_site_occupancy
  Fe  Fe0  1  0.00000000  0.00000000  0.00000000  1.0
  Fe  Fe1  1  0.50542800  0.50542800  0.31058700  1.0
  Fe  Fe2  1  0.49457200  0.49457200  0.68941300  1.0
  Fe  Fe3  1  0.77629100  0.77629100  0.64056600  1.0
  Fe  Fe4  1  0.22370900  0.22370900  0.35943400  1.0
  Fe  Fe5  1  0.66241000  0.06596800  0.84818800  1.0
  Fe  Fe6  1  0.06596800  0.66241000  0.84818800  1.0
  Fe  Fe7  1  0.33759000  0.93403200  0.15181200  1.0
  Fe  Fe8  1  0.93403200  0.33759000  0.15181200  1.0
