# generated using pymatgen
data_CeRu3
_symmetry_space_group_name_H-M   'P 1'
_cell_length_a   3.01190000
_cell_length_b   5.54895400
_cell_length_c   5.54895389
_cell_angle_alpha   120.00000067
_cell_angle_beta   90.00000000
_cell_angle_gamma   90.00000000
_symmetry_Int_Tables_number   1
_chemical_formula_structural   CeRu3
_chemical_formula_sum   'Ce1 Ru3'
_cell_volume   80.31439976
_cell_formula_units_Z   1
loop_
 _symmetry_equiv_pos_site_id
 _symmetry_equiv_pos_as_xyz
  1  'x, y, z'
loop_
 _atom_site_type_symbol
 _atom_site_label
 _atom_site_symmetry_multiplicity
 _atom_site_fract_x
 _atom_site_fract_y
 _atom_site_fract_z
 _atom_site_occupancy
  Ce  Ce0  1  0.00000000  0.00000000  0.00000000  1.0
  Ru  Ru1  1  0.50000000  0.50000000  0.50000000  1.0
  Ru  Ru2  1  0.50000000  0.50000000  0.00000000  1.0
  Ru  Ru3  1  0.50000000  0.00000000  0.50000000  1.0
