# generated using pymatgen
data_DyCo
_symmetry_space_group_name_H-M   'P 1'
_cell_length_a   3.94001800
_cell_length_b   3.94001828
_cell_length_c   16.90658500
_cell_angle_alpha   90.00000000
_cell_angle_beta   90.00000000
_cell_angle_gamma   119.99999767
_symmetry_Int_Tables_number   1
_chemical_formula_structural   DyCo
_chemical_formula_sum   'Dy4 Co4'
_cell_volume   227.29138612
_cell_formula_units_Z   4
loop_
 _symmetry_equiv_pos_site_id
 _symmetry_equiv_pos_as_xyz
  1  'x, y, z'
loop_
 _atom_site_type_symbol
 _atom_site_label
 _atom_site_symmetry_multiplicity
 _atom_site_fract_x
 _atom_site_fract_y
 _atom_site_fract_z
 _atom_site_occupancy
  Dy  Dy0  1  0.00000000  0.00000000  0.89641300  1.0
  Dy  Dy1  1  0.00000000  0.00000000  0.10358700  1.0
  Dy  Dy2  1  0.00000000  0.00000000  0.39641300  1.0
  Dy  Dy3  1  0.00000000  0.00000000  0.60358700  1.0
  Co  Co4  1  0.66666667  0.33333333  0.49805700  1.0
  Co  Co5  1  0.33333333  0.66666667  0.50194300  1.0
  Co  Co6  1  0.33333333  0.66666667  0.99805700  1.0
  Co  Co7  1  0.66666667  0.33333333  0.00194300  1.0
