# generated using pymatgen
data_TbFe
_symmetry_space_group_name_H-M   'P 1'
_cell_length_a   5.35451000
_cell_length_b   5.66560400
_cell_length_c   7.73239600
_cell_angle_alpha   90.00000000
_cell_angle_beta   90.00000000
_cell_angle_gamma   90.00000000
_symmetry_Int_Tables_number   1
_chemical_formula_structural   TbFe
_chemical_formula_sum   'Tb4 Fe4'
_cell_volume   234.57408854
_cell_formula_units_Z   4
loop_
 _symmetry_equiv_pos_site_id
 _symmetry_equiv_pos_as_xyz
  1  'x, y, z'
loop_
 _atom_site_type_symbol
 _atom_site_label
 _atom_site_symmetry_multiplicity
 _atom_site_fract_x
 _atom_site_fract_y
 _atom_site_fract_z
 _atom_site_occupancy
  Tb  Tb0  1  0.01857100  0.93171900  0.75000000  1.0
  Tb  Tb1  1  0.51857100  0.56828100  0.25000000  1.0
  Tb  Tb2  1  0.48142900  0.43171900  0.75000000  1.0
  Tb  Tb3  1  0.98142900  0.06828100  0.25000000  1.0
  Fe  Fe4  1  0.50000000  0.00000000  0.50000000  1.0
  Fe  Fe5  1  0.00000000  0.50000000  0.50000000  1.0
  Fe  Fe6  1  0.00000000  0.50000000  0.00000000  1.0
  Fe  Fe7  1  0.50000000  0.00000000  0.00000000  1.0
