# generated using pymatgen
data_MnNb2
_symmetry_space_group_name_H-M   'P 1'
_cell_length_a   5.90998676
_cell_length_b   5.90998675
_cell_length_c   7.26277400
_cell_angle_alpha   90.00000196
_cell_angle_beta   90.00000072
_cell_angle_gamma   120.00000091
_symmetry_Int_Tables_number   1
_chemical_formula_structural   MnNb2
_chemical_formula_sum   'Mn1 Nb2'
_cell_volume   219.68791804
_cell_formula_units_Z   1
loop_
 _symmetry_equiv_pos_site_id
 _symmetry_equiv_pos_as_xyz
  1  'x, y, z'
loop_
 _atom_site_type_symbol
 _atom_site_label
 _atom_site_symmetry_multiplicity
 _atom_site_fract_x
 _atom_site_fract_y
 _atom_site_fract_z
 _atom_site_occupancy
  Mn  Mn0  1  0.00000000  0.00000000  0.50000000  1.0
  Nb  Nb1  1  0.66666700  0.33333400  0.82481900  1.0
  Nb  Nb2  1  0.33333300  0.66666600  0.17518100  1.0
