# generated using pymatgen
data_Pr2Ir
_symmetry_space_group_name_H-M   'P 1'
_cell_length_a   5.54705800
_cell_length_b   5.73049900
_cell_length_c   7.90233757
_cell_angle_alpha   90.00000000
_cell_angle_beta   90.07389695
_cell_angle_gamma   90.00000000
_symmetry_Int_Tables_number   1
_chemical_formula_structural   Pr2Ir
_chemical_formula_sum   'Pr4 Ir2'
_cell_volume   251.19463796
_cell_formula_units_Z   2
loop_
 _symmetry_equiv_pos_site_id
 _symmetry_equiv_pos_as_xyz
  1  'x, y, z'
loop_
 _atom_site_type_symbol
 _atom_site_label
 _atom_site_symmetry_multiplicity
 _atom_site_fract_x
 _atom_site_fract_y
 _atom_site_fract_z
 _atom_site_occupancy
  Pr  Pr0  1  0.98656300  0.55501800  0.24940800  1.0
  Pr  Pr1  1  0.48656300  0.94498200  0.74940800  1.0
  Pr  Pr2  1  0.01343700  0.44498200  0.75059200  1.0
  Pr  Pr3  1  0.51343700  0.05501800  0.25059200  1.0
  Ir  Ir4  1  0.00000000  0.00000000  0.50000000  1.0
  Ir  Ir5  1  0.50000000  0.50000000  0.00000000  1.0
