# generated using pymatgen
data_CrMo6
_symmetry_space_group_name_H-M   'P 1'
_cell_length_a   6.74133746
_cell_length_b   6.74133746
_cell_length_c   6.74133712
_cell_angle_alpha   91.66542199
_cell_angle_beta   91.66542199
_cell_angle_gamma   91.66542822
_symmetry_Int_Tables_number   1
_chemical_formula_structural   CrMo6
_chemical_formula_sum   'Cr1 Mo6'
_cell_volume   305.96838024
_cell_formula_units_Z   1
loop_
 _symmetry_equiv_pos_site_id
 _symmetry_equiv_pos_as_xyz
  1  'x, y, z'
loop_
 _atom_site_type_symbol
 _atom_site_label
 _atom_site_symmetry_multiplicity
 _atom_site_fract_x
 _atom_site_fract_y
 _atom_site_fract_z
 _atom_site_occupancy
  Cr  Cr0  1  0.00000000  0.00000000  0.00000000  1.0
  Mo  Mo1  1  0.58014600  0.44964500  0.77115300  1.0
  Mo  Mo2  1  0.41985400  0.55035500  0.22884700  1.0
  Mo  Mo3  1  0.44964500  0.77115300  0.58014600  1.0
  Mo  Mo4  1  0.55035500  0.22884700  0.41985400  1.0
  Mo  Mo5  1  0.77115300  0.58014600  0.44964500  1.0
  Mo  Mo6  1  0.22884700  0.41985400  0.55035500  1.0
