# generated using pymatgen
data_SrFeO2
_symmetry_space_group_name_H-M   'P 1'
_cell_length_a   5.35250016
_cell_length_b   5.35250785
_cell_length_c   5.35250016
_cell_angle_alpha   64.82485562
_cell_angle_beta   81.41799481
_cell_angle_gamma   115.17515335
_symmetry_Int_Tables_number   1
_chemical_formula_structural   SrFeO2
_chemical_formula_sum   'Sr2 Fe2 O4'
_cell_volume   114.93934030
_cell_formula_units_Z   2
loop_
 _symmetry_equiv_pos_site_id
 _symmetry_equiv_pos_as_xyz
  1  'x, y, z'
loop_
 _atom_site_type_symbol
 _atom_site_label
 _atom_site_symmetry_multiplicity
 _atom_site_fract_x
 _atom_site_fract_y
 _atom_site_fract_z
 _atom_site_occupancy
  Sr  Sr0  1  0.75000000  0.50000000  0.75000000  1
  Sr  Sr1  1  0.25000000  0.50000000  0.25000000  1
  Fe  Fe2  1  0.50000100  0.00000000  0.50000100  1
  Fe  Fe3  1  0.00000000  0.00000100  0.00000000  1
  O  O4  1  0.24999700  0.00000000  0.24999700  1
  O  O5  1  0.75000300  0.00000000  0.75000300  1
  O  O6  1  0.24999600  0.49999300  0.75000400  1
  O  O7  1  0.75000400  0.50000600  0.24999600  1
