# generated using pymatgen
data_Ho6Fe23
_symmetry_space_group_name_H-M   'P 1'
_cell_length_a   8.47313611
_cell_length_b   8.47313611
_cell_length_c   8.47313611
_cell_angle_alpha   60.00000000
_cell_angle_beta   60.00000000
_cell_angle_gamma   60.00000000
_symmetry_Int_Tables_number   1
_chemical_formula_structural   Ho6Fe23
_chemical_formula_sum   'Ho6 Fe23'
_cell_volume   430.14764587
_cell_formula_units_Z   1
loop_
 _symmetry_equiv_pos_site_id
 _symmetry_equiv_pos_as_xyz
  1  'x, y, z'
loop_
 _atom_site_type_symbol
 _atom_site_label
 _atom_site_symmetry_multiplicity
 _atom_site_fract_x
 _atom_site_fract_y
 _atom_site_fract_z
 _atom_site_occupancy
  Ho  Ho0  1  0.20972300  0.79027700  0.20972300  1
  Ho  Ho1  1  0.20972300  0.79027700  0.79027700  1
  Ho  Ho2  1  0.79027700  0.20972300  0.20972300  1
  Ho  Ho3  1  0.79027700  0.79027700  0.20972300  1
  Ho  Ho4  1  0.20972300  0.20972300  0.79027700  1
  Ho  Ho5  1  0.79027700  0.20972300  0.79027700  1
  Fe  Fe6  1  0.50000000  0.50000000  0.50000000  1
  Fe  Fe7  1  0.00000000  0.50000000  0.00000000  1
  Fe  Fe8  1  0.50000000  0.00000000  0.00000000  1
  Fe  Fe9  1  0.00000000  0.50000000  0.50000000  1
  Fe  Fe10  1  0.50000000  0.00000000  0.50000000  1
  Fe  Fe11  1  0.00000000  0.00000000  0.50000000  1
  Fe  Fe12  1  0.50000000  0.50000000  0.00000000  1
  Fe  Fe13  1  0.17548800  0.17548800  0.17548800  1
  Fe  Fe14  1  0.52646400  0.82451200  0.82451200  1
  Fe  Fe15  1  0.82451200  0.52646400  0.82451200  1
  Fe  Fe16  1  0.82451200  0.82451200  0.52646400  1
  Fe  Fe17  1  0.17548800  0.47353600  0.17548800  1
  Fe  Fe18  1  0.17548800  0.17548800  0.47353600  1
  Fe  Fe19  1  0.47353600  0.17548800  0.17548800  1
  Fe  Fe20  1  0.82451200  0.82451200  0.82451200  1
  Fe  Fe21  1  0.37839800  0.37839800  0.37839800  1
  Fe  Fe22  1  0.13519300  0.62160200  0.62160200  1
  Fe  Fe23  1  0.62160200  0.13519300  0.62160200  1
  Fe  Fe24  1  0.62160200  0.62160200  0.13519300  1
  Fe  Fe25  1  0.37839800  0.86480700  0.37839800  1
  Fe  Fe26  1  0.37839800  0.37839800  0.86480700  1
  Fe  Fe27  1  0.86480700  0.37839800  0.37839800  1
  Fe  Fe28  1  0.62160200  0.62160200  0.62160200  1
