# generated using pymatgen
data_Pb
_symmetry_space_group_name_H-M   'P 1'
_cell_length_a   10.41003200
_cell_length_b   10.41003186
_cell_length_c   10.86378800
_cell_angle_alpha   90.00000000
_cell_angle_beta   90.00000000
_cell_angle_gamma   120.00000046
_symmetry_Int_Tables_number   1
_chemical_formula_structural   Pb
_chemical_formula_sum   Pb15
_cell_volume   1019.56762144
_cell_formula_units_Z   15
loop_
 _symmetry_equiv_pos_site_id
 _symmetry_equiv_pos_as_xyz
  1  'x, y, z'
loop_
 _atom_site_type_symbol
 _atom_site_label
 _atom_site_symmetry_multiplicity
 _atom_site_fract_x
 _atom_site_fract_y
 _atom_site_fract_z
 _atom_site_occupancy
  Pb  Pb0  1  0.74383900  0.73987900  0.50000000  1.0
  Pb  Pb1  1  0.66666667  0.33333333  0.32425700  1.0
  Pb  Pb2  1  0.26549600  0.26603200  0.81633300  1.0
  Pb  Pb3  1  0.73396800  0.99946400  0.18366700  1.0
  Pb  Pb4  1  0.33333333  0.66666667  0.66135100  1.0
  Pb  Pb5  1  0.33333333  0.66666667  0.33864900  1.0
  Pb  Pb6  1  0.26012100  0.00396000  0.50000000  1.0
  Pb  Pb7  1  0.99604000  0.25616100  0.50000000  1.0
  Pb  Pb8  1  0.66666667  0.33333333  0.67574300  1.0
  Pb  Pb9  1  0.73396800  0.99946400  0.81633300  1.0
  Pb  Pb10  1  0.26549600  0.26603200  0.18366700  1.0
  Pb  Pb11  1  0.66666667  0.33333333  0.00000000  1.0
  Pb  Pb12  1  0.33333333  0.66666667  0.00000000  1.0
  Pb  Pb13  1  0.00053600  0.73450400  0.18366700  1.0
  Pb  Pb14  1  0.00053600  0.73450400  0.81633300  1.0
