# generated using pymatgen
data_Ce3Cu
_symmetry_space_group_name_H-M   'P 1'
_cell_length_a   6.36837400
_cell_length_b   10.61878800
_cell_length_c   10.61878786
_cell_angle_alpha   120.00000044
_cell_angle_beta   90.00000000
_cell_angle_gamma   90.00000000
_symmetry_Int_Tables_number   1
_chemical_formula_structural   Ce3Cu
_chemical_formula_sum   'Ce6 Cu2'
_cell_volume   621.88357351
_cell_formula_units_Z   2
loop_
 _symmetry_equiv_pos_site_id
 _symmetry_equiv_pos_as_xyz
  1  'x, y, z'
loop_
 _atom_site_type_symbol
 _atom_site_label
 _atom_site_symmetry_multiplicity
 _atom_site_fract_x
 _atom_site_fract_y
 _atom_site_fract_z
 _atom_site_occupancy
  Ce  Ce0  1  0.24587800  0.86296900  0.22066100  1.0
  Ce  Ce1  1  0.74587800  0.22066000  0.35769100  1.0
  Ce  Ce2  1  0.74587800  0.64230800  0.86296800  1.0
  Ce  Ce3  1  0.24587800  0.35769200  0.13703200  1.0
  Ce  Ce4  1  0.24587800  0.77934000  0.64230900  1.0
  Ce  Ce5  1  0.74587800  0.13703100  0.77933900  1.0
  Cu  Cu6  1  0.28616100  0.00000000  0.00000000  1.0
  Cu  Cu7  1  0.78616100  0.00000000  0.00000000  1.0
