# generated using pymatgen
data_Tb3Ru4
_symmetry_space_group_name_H-M   'P 1'
_cell_length_a   8.84497400
_cell_length_b   8.84497384
_cell_length_c   9.60076600
_cell_angle_alpha   90.00000000
_cell_angle_beta   90.00000000
_cell_angle_gamma   120.00000058
_symmetry_Int_Tables_number   1
_chemical_formula_structural   Tb3Ru4
_chemical_formula_sum   'Tb6 Ru8'
_cell_volume   650.47352810
_cell_formula_units_Z   2
loop_
 _symmetry_equiv_pos_site_id
 _symmetry_equiv_pos_as_xyz
  1  'x, y, z'
loop_
 _atom_site_type_symbol
 _atom_site_label
 _atom_site_symmetry_multiplicity
 _atom_site_fract_x
 _atom_site_fract_y
 _atom_site_fract_z
 _atom_site_occupancy
  Tb  Tb0  1  0.61312600  0.80656300  0.75000000  1.0
  Tb  Tb1  1  0.19343700  0.38687400  0.75000000  1.0
  Tb  Tb2  1  0.19343700  0.80656300  0.75000000  1.0
  Tb  Tb3  1  0.38687400  0.19343700  0.25000000  1.0
  Tb  Tb4  1  0.80656300  0.61312600  0.25000000  1.0
  Tb  Tb5  1  0.80656300  0.19343700  0.25000000  1.0
  Ru  Ru6  1  0.00000000  0.00000000  0.50000000  1.0
  Ru  Ru7  1  0.00000000  0.00000000  0.00000000  1.0
  Ru  Ru8  1  0.50000000  0.50000000  0.50000000  1.0
  Ru  Ru9  1  0.00000000  0.50000000  0.50000000  1.0
  Ru  Ru10  1  0.50000000  0.00000000  0.50000000  1.0
  Ru  Ru11  1  0.50000000  0.50000000  0.00000000  1.0
  Ru  Ru12  1  0.00000000  0.50000000  0.00000000  1.0
  Ru  Ru13  1  0.50000000  0.00000000  0.00000000  1.0
