# generated using pymatgen
data_Ru
_symmetry_space_group_name_H-M   'P 1'
_cell_length_a   5.26094800
_cell_length_b   5.30834200
_cell_length_c   5.30833159
_cell_angle_alpha   59.99993511
_cell_angle_beta   90.00017216
_cell_angle_gamma   90.00009218
_symmetry_Int_Tables_number   1
_chemical_formula_structural   Ru
_chemical_formula_sum   Ru2
_cell_volume   128.38411632
_cell_formula_units_Z   2
loop_
 _symmetry_equiv_pos_site_id
 _symmetry_equiv_pos_as_xyz
  1  'x, y, z'
loop_
 _atom_site_type_symbol
 _atom_site_label
 _atom_site_symmetry_multiplicity
 _atom_site_fract_x
 _atom_site_fract_y
 _atom_site_fract_z
 _atom_site_occupancy
  Ru  Ru0  1  0.49999700  0.66666667  0.66666667  1.0
  Ru  Ru1  1  0.49999700  0.33333333  0.33333333  1.0
