# generated using pymatgen
data_CoGeO3
_symmetry_space_group_name_H-M   'P 1'
_cell_length_a   6.69370884
_cell_length_b   6.69370884
_cell_length_c   5.23801405
_cell_angle_alpha   81.49480255
_cell_angle_beta   81.49480255
_cell_angle_gamma   86.09044661
_symmetry_Int_Tables_number   1
_chemical_formula_structural   CoGeO3
_chemical_formula_sum   'Co4 Ge4 O12'
_cell_volume   229.30196540
_cell_formula_units_Z   4
loop_
 _symmetry_equiv_pos_site_id
 _symmetry_equiv_pos_as_xyz
  1  'x, y, z'
loop_
 _atom_site_type_symbol
 _atom_site_label
 _atom_site_symmetry_multiplicity
 _atom_site_fract_x
 _atom_site_fract_y
 _atom_site_fract_z
 _atom_site_occupancy
  Co  Co0  1  0.90614900  0.09385100  0.75000000  1
  Co  Co1  1  0.73012100  0.26987900  0.25000000  1
  Co  Co2  1  0.09385100  0.90614900  0.25000000  1
  Co  Co3  1  0.26987900  0.73012100  0.75000000  1
  Ge  Ge4  1  0.60535300  0.79563400  0.21511900  1
  Ge  Ge5  1  0.79563400  0.60535300  0.71511900  1
  Ge  Ge6  1  0.20436600  0.39464700  0.28488100  1
  Ge  Ge7  1  0.39464700  0.20436600  0.78488100  1
  O  O8  1  0.57145500  0.71049200  0.91030500  1
  O  O9  1  0.28950800  0.42854500  0.58969500  1
  O  O10  1  0.37265500  0.86411600  0.38406200  1
  O  O11  1  0.79273700  0.97742800  0.13534000  1
  O  O12  1  0.97742800  0.79273700  0.63534000  1
  O  O13  1  0.42854500  0.28950800  0.08969500  1
  O  O14  1  0.71049200  0.57145500  0.41030500  1
  O  O15  1  0.13588400  0.62734500  0.11593800  1
  O  O16  1  0.86411600  0.37265500  0.88406200  1
  O  O17  1  0.20726300  0.02257200  0.86466000  1
  O  O18  1  0.02257200  0.20726300  0.36466000  1
  O  O19  1  0.62734500  0.13588400  0.61593800  1
