# generated using pymatgen
data_Ho3Cu4
_symmetry_space_group_name_H-M   'P 1'
_cell_length_a   4.18369000
_cell_length_b   6.65291600
_cell_length_c   7.97773718
_cell_angle_alpha   114.64328746
_cell_angle_beta   105.20125508
_cell_angle_gamma   90.00000000
_symmetry_Int_Tables_number   1
_chemical_formula_structural   Ho3Cu4
_chemical_formula_sum   'Ho3 Cu4'
_cell_volume   193.24544077
_cell_formula_units_Z   1
loop_
 _symmetry_equiv_pos_site_id
 _symmetry_equiv_pos_as_xyz
  1  'x, y, z'
loop_
 _atom_site_type_symbol
 _atom_site_label
 _atom_site_symmetry_multiplicity
 _atom_site_fract_x
 _atom_site_fract_y
 _atom_site_fract_z
 _atom_site_occupancy
  Ho  Ho0  1  0.12985800  0.12985800  0.25971600  1.0
  Ho  Ho1  1  0.87014200  0.87014200  0.74028400  1.0
  Ho  Ho2  1  1.00000000  0.50000000  1.00000000  1.0
  Cu  Cu3  1  0.33080100  0.14071400  0.66160200  1.0
  Cu  Cu4  1  0.66919900  0.85928600  0.33839800  1.0
  Cu  Cu5  1  0.33080100  0.52088800  0.66160200  1.0
  Cu  Cu6  1  0.66919900  0.47911200  0.33839800  1.0
