# generated using pymatgen
data_Co
_symmetry_space_group_name_H-M   'P 1'
_cell_length_a   5.50710474
_cell_length_b   6.85594672
_cell_length_c   6.85740133
_cell_angle_alpha   82.69147599
_cell_angle_beta   78.60880307
_cell_angle_gamma   78.54501011
_symmetry_Int_Tables_number   1
_chemical_formula_structural   Co
_chemical_formula_sum   Co2
_cell_volume   247.70976569
_cell_formula_units_Z   2
loop_
 _symmetry_equiv_pos_site_id
 _symmetry_equiv_pos_as_xyz
  1  'x, y, z'
loop_
 _atom_site_type_symbol
 _atom_site_label
 _atom_site_symmetry_multiplicity
 _atom_site_fract_x
 _atom_site_fract_y
 _atom_site_fract_z
 _atom_site_occupancy
  Co  Co0  1  0.74904600  0.08974900  0.90901100  1.0
  Co  Co1  1  0.25001600  0.90795300  0.09234000  1.0
