# generated using pymatgen
data_CeMn4(CuO4)3
_symmetry_space_group_name_H-M   'P 1'
_cell_length_a   6.43656407
_cell_length_b   6.43656407
_cell_length_c   6.43656407
_cell_angle_alpha   109.47122063
_cell_angle_beta   109.47122063
_cell_angle_gamma   109.47122063
_symmetry_Int_Tables_number   1
_chemical_formula_structural   CeMn4(CuO4)3
_chemical_formula_sum   'Ce1 Mn4 Cu3 O12'
_cell_volume   205.27705080
_cell_formula_units_Z   1
loop_
 _symmetry_equiv_pos_site_id
 _symmetry_equiv_pos_as_xyz
  1  'x, y, z'
loop_
 _atom_site_type_symbol
 _atom_site_label
 _atom_site_symmetry_multiplicity
 _atom_site_fract_x
 _atom_site_fract_y
 _atom_site_fract_z
 _atom_site_occupancy
  Ce  Ce0  1  0.00000000  0.00000000  0.00000000  1
  Mn  Mn1  1  0.00000000  0.00000000  0.50000000  1
  Mn  Mn2  1  0.50000000  0.00000000  0.00000000  1
  Mn  Mn3  1  0.00000000  0.50000000  0.00000000  1
  Mn  Mn4  1  0.50000000  0.50000000  0.50000000  1
  Cu  Cu5  1  0.50000000  0.00000000  0.50000000  1
  Cu  Cu6  1  0.00000000  0.50000000  0.50000000  1
  Cu  Cu7  1  0.50000000  0.50000000  0.00000000  1
  O  O8  1  0.70243600  0.82536700  0.52780300  1
  O  O9  1  0.70243600  0.17463300  0.87706900  1
  O  O10  1  0.29756400  0.82536700  0.12293100  1
  O  O11  1  0.29756400  0.17463300  0.47219700  1
  O  O12  1  0.82536700  0.52780300  0.70243600  1
  O  O13  1  0.17463300  0.87706900  0.70243600  1
  O  O14  1  0.82536700  0.12293100  0.29756400  1
  O  O15  1  0.17463300  0.47219700  0.29756400  1
  O  O16  1  0.52780300  0.70243600  0.82536700  1
  O  O17  1  0.87706900  0.70243600  0.17463300  1
  O  O18  1  0.12293100  0.29756400  0.82536700  1
  O  O19  1  0.47219700  0.29756400  0.17463300  1
