# generated using pymatgen
data_Th2Ni17
_symmetry_space_group_name_H-M   'P 1'
_cell_length_a   8.07390300
_cell_length_b   8.32838400
_cell_length_c   8.32838390
_cell_angle_alpha   120.00000040
_cell_angle_beta   90.00000000
_cell_angle_gamma   90.00000000
_symmetry_Int_Tables_number   1
_chemical_formula_structural   Th2Ni17
_chemical_formula_sum   'Th4 Ni34'
_cell_volume   484.99318332
_cell_formula_units_Z   2
loop_
 _symmetry_equiv_pos_site_id
 _symmetry_equiv_pos_as_xyz
  1  'x, y, z'
loop_
 _atom_site_type_symbol
 _atom_site_label
 _atom_site_symmetry_multiplicity
 _atom_site_fract_x
 _atom_site_fract_y
 _atom_site_fract_z
 _atom_site_occupancy
  Th  Th0  1  0.75000000  0.00000000  0.00000000  1.0
  Th  Th1  1  0.25000000  0.00000000  0.00000000  1.0
  Th  Th2  1  0.25000000  0.66666667  0.33333333  1.0
  Th  Th3  1  0.75000000  0.33333333  0.66666667  1.0
  Ni  Ni4  1  0.89813700  0.66666667  0.33333333  1.0
  Ni  Ni5  1  0.39813700  0.33333333  0.66666667  1.0
  Ni  Ni6  1  0.10186300  0.33333333  0.66666667  1.0
  Ni  Ni7  1  0.60186300  0.66666667  0.33333333  1.0
  Ni  Ni8  1  1.00000000  0.50000000  0.50000000  1.0
  Ni  Ni9  1  0.50000000  0.50000000  0.00000000  1.0
  Ni  Ni10  1  0.50000000  1.00000000  0.50000000  1.0
  Ni  Ni11  1  0.00000000  1.00000000  0.50000000  1.0
  Ni  Ni12  1  0.00000000  0.50000000  0.00000000  1.0
  Ni  Ni13  1  0.50000000  0.50000000  0.50000000  1.0
  Ni  Ni14  1  0.75000000  0.67168300  0.62731900  1.0
  Ni  Ni15  1  0.25000000  0.62732000  0.95563700  1.0
  Ni  Ni16  1  0.25000000  0.04436400  0.67168400  1.0
  Ni  Ni17  1  0.75000000  0.95563600  0.32831600  1.0
  Ni  Ni18  1  0.75000000  0.37268000  0.04436300  1.0
  Ni  Ni19  1  0.25000000  0.62732000  0.67168400  1.0
  Ni  Ni20  1  0.25000000  0.32831700  0.95563700  1.0
  Ni  Ni21  1  0.25000000  0.32831700  0.37268100  1.0
  Ni  Ni22  1  0.25000000  0.04436400  0.37268100  1.0
  Ni  Ni23  1  0.75000000  0.95563600  0.62731900  1.0
  Ni  Ni24  1  0.75000000  0.37268000  0.32831600  1.0
  Ni  Ni25  1  0.75000000  0.67168300  0.04436300  1.0
  Ni  Ni26  1  0.02002300  0.83444200  0.16555700  1.0
  Ni  Ni27  1  0.52002300  0.16555800  0.33111600  1.0
  Ni  Ni28  1  0.52002300  0.66888500  0.83444300  1.0
  Ni  Ni29  1  0.02002300  0.33111500  0.16555700  1.0
  Ni  Ni30  1  0.02002300  0.83444200  0.66888400  1.0
  Ni  Ni31  1  0.97997700  0.16555800  0.83444300  1.0
  Ni  Ni32  1  0.97997700  0.16555800  0.33111600  1.0
  Ni  Ni33  1  0.52002300  0.16555800  0.83444300  1.0
  Ni  Ni34  1  0.97997700  0.66888500  0.83444300  1.0
  Ni  Ni35  1  0.47997700  0.33111500  0.16555700  1.0
  Ni  Ni36  1  0.47997700  0.83444200  0.16555700  1.0
  Ni  Ni37  1  0.47997700  0.83444200  0.66888400  1.0
