# generated using pymatgen
data_Ba9(FeSe4)4
_symmetry_space_group_name_H-M   'P 1'
_cell_length_a   19.33791760
_cell_length_b   19.33791760
_cell_length_c   9.96717999
_cell_angle_alpha   75.19118160
_cell_angle_beta   75.19118160
_cell_angle_gamma   137.23994235
_symmetry_Int_Tables_number   1
_chemical_formula_structural   Ba9(FeSe4)4
_chemical_formula_sum   'Ba18 Fe8 Se32'
_cell_volume   1804.40024243
_cell_formula_units_Z   2
loop_
 _symmetry_equiv_pos_site_id
 _symmetry_equiv_pos_as_xyz
  1  'x, y, z'
loop_
 _atom_site_type_symbol
 _atom_site_label
 _atom_site_symmetry_multiplicity
 _atom_site_fract_x
 _atom_site_fract_y
 _atom_site_fract_z
 _atom_site_occupancy
  Ba  Ba0  1  0.62560200  0.37439800  0.50000000  1
  Ba  Ba1  1  0.37512300  0.62487700  0.00000000  1
  Ba  Ba2  1  0.86616200  0.40355500  0.15704700  1
  Ba  Ba3  1  0.59644500  0.13383800  0.84295300  1
  Ba  Ba4  1  0.27048100  0.30853700  0.08083300  1
  Ba  Ba5  1  0.69146300  0.72951900  0.91916700  1
  Ba  Ba6  1  0.15570800  0.62204000  0.34109800  1
  Ba  Ba7  1  0.37796000  0.84429200  0.65890200  1
  Ba  Ba8  1  0.72878500  0.69123600  0.41985700  1
  Ba  Ba9  1  0.30876400  0.27121500  0.58014300  1
  Ba  Ba10  1  0.56877300  0.89115800  0.16107800  1
  Ba  Ba11  1  0.10884200  0.43122700  0.83892200  1
  Ba  Ba12  1  0.98096400  0.79862200  0.87817800  1
  Ba  Ba13  1  0.20137800  0.01903600  0.12182200  1
  Ba  Ba14  1  0.42303900  0.10089300  0.33890300  1
  Ba  Ba15  1  0.89910700  0.57696100  0.66109700  1
  Ba  Ba16  1  0.01694100  0.20211500  0.62789500  1
  Ba  Ba17  1  0.79788500  0.98305900  0.37210500  1
  Fe  Fe18  1  0.95602600  0.29456900  0.33492000  1
  Fe  Fe19  1  0.70543100  0.04397400  0.66508000  1
  Fe  Fe20  1  0.54029000  0.37690600  0.91327300  1
  Fe  Fe21  1  0.62309400  0.45971000  0.08672700  1
  Fe  Fe22  1  0.03923000  0.70161000  0.17432500  1
  Fe  Fe23  1  0.29839000  0.96077000  0.82567500  1
  Fe  Fe24  1  0.46086100  0.62362200  0.58645000  1
  Fe  Fe25  1  0.37637800  0.53913900  0.41355000  1
  Se  Se26  1  0.64515100  0.55159000  0.22914800  1
  Se  Se27  1  0.44841000  0.35484900  0.77085200  1
  Se  Se28  1  0.12179000  0.52695900  0.09049300  1
  Se  Se29  1  0.47304100  0.87821000  0.90950700  1
  Se  Se30  1  0.35445100  0.44713300  0.27162100  1
  Se  Se31  1  0.55286700  0.64554900  0.72837900  1
  Se  Se32  1  0.88100800  0.47277100  0.42815300  1
  Se  Se33  1  0.52722900  0.11899200  0.57184700  1
  Se  Se34  1  0.07876100  0.29117900  0.22512600  1
  Se  Se35  1  0.70882100  0.92123900  0.77487400  1
  Se  Se36  1  0.55658000  0.26731200  0.90002700  1
  Se  Se37  1  0.73268800  0.44342000  0.09997300  1
  Se  Se38  1  0.91838700  0.70630000  0.28047700  1
  Se  Se39  1  0.29370000  0.08161300  0.71952300  1
  Se  Se40  1  0.44813800  0.73600400  0.59669700  1
  Se  Se41  1  0.26399600  0.55186200  0.40330300  1
  Se  Se42  1  0.61498600  0.74537400  0.26179600  1
  Se  Se43  1  0.25462600  0.38501400  0.73820400  1
  Se  Se44  1  0.12192900  0.75322500  0.88269100  1
  Se  Se45  1  0.24677500  0.87807100  0.11730900  1
  Se  Se46  1  0.38602600  0.25491800  0.23686000  1
  Se  Se47  1  0.74508200  0.61397400  0.76314000  1
  Se  Se48  1  0.87365500  0.24584600  0.62188800  1
  Se  Se49  1  0.75415400  0.12634500  0.37811200  1
  Se  Se50  1  0.12314700  0.87685300  0.50000000  1
  Se  Se51  1  0.87023400  0.12976600  0.00000000  1
  Se  Se52  1  0.04789700  0.02426400  0.60741200  1
  Se  Se53  1  0.97573600  0.95210300  0.39258800  1
  Se  Se54  1  0.46301800  0.96482900  0.26306100  1
  Se  Se55  1  0.03517100  0.53698200  0.73693900  1
  Se  Se56  1  0.95181600  0.97559200  0.89360300  1
  Se  Se57  1  0.02440800  0.04818400  0.10639700  1
