# generated using pymatgen
data_Fe4Bi2O9
_symmetry_space_group_name_H-M   'P 1'
_cell_length_a   8.05363200
_cell_length_b   8.62457700
_cell_length_c   12.26096800
_cell_angle_alpha   90.00000000
_cell_angle_beta   90.00000000
_cell_angle_gamma   90.00000000
_symmetry_Int_Tables_number   1
_chemical_formula_structural   Fe4Bi2O9
_chemical_formula_sum   'Fe16 Bi8 O36'
_cell_volume   851.63665226
_cell_formula_units_Z   4
loop_
 _symmetry_equiv_pos_site_id
 _symmetry_equiv_pos_as_xyz
  1  'x, y, z'
loop_
 _atom_site_type_symbol
 _atom_site_label
 _atom_site_symmetry_multiplicity
 _atom_site_fract_x
 _atom_site_fract_y
 _atom_site_fract_z
 _atom_site_occupancy
  Fe  Fe0  1  0.50629900  0.50160400  0.12828000  1
  Fe  Fe1  1  0.99370100  0.00160400  0.37172000  1
  Fe  Fe2  1  0.49370100  0.49839600  0.62828000  1
  Fe  Fe3  1  0.00629900  0.99839600  0.87172000  1
  Fe  Fe4  1  0.49370100  0.49839600  0.87172000  1
  Fe  Fe5  1  0.00629900  0.99839600  0.62828000  1
  Fe  Fe6  1  0.50629900  0.50160400  0.37172000  1
  Fe  Fe7  1  0.99370100  0.00160400  0.12828000  1
  Fe  Fe8  1  0.35150400  0.83917300  0.25000000  1
  Fe  Fe9  1  0.14849600  0.33917300  0.25000000  1
  Fe  Fe10  1  0.64849600  0.16082700  0.75000000  1
  Fe  Fe11  1  0.85150400  0.66082700  0.75000000  1
  Fe  Fe12  1  0.85824600  0.67393900  0.25000000  1
  Fe  Fe13  1  0.64175400  0.17393900  0.25000000  1
  Fe  Fe14  1  0.14175400  0.32606100  0.75000000  1
  Fe  Fe15  1  0.35824600  0.82606100  0.75000000  1
  Bi  Bi16  1  0.17823000  0.67692600  0.00709600  1
  Bi  Bi17  1  0.32177000  0.17692600  0.49290400  1
  Bi  Bi18  1  0.82177000  0.32307400  0.50709600  1
  Bi  Bi19  1  0.67823000  0.82307400  0.99290400  1
  Bi  Bi20  1  0.82177000  0.32307400  0.99290400  1
  Bi  Bi21  1  0.67823000  0.82307400  0.50709600  1
  Bi  Bi22  1  0.17823000  0.67692600  0.49290400  1
  Bi  Bi23  1  0.32177000  0.17692600  0.00709600  1
  O  O24  1  0.15195500  0.93356700  0.00362300  1
  O  O25  1  0.34804500  0.43356700  0.49637700  1
  O  O26  1  0.84804500  0.06643300  0.50362300  1
  O  O27  1  0.65195500  0.56643300  0.99637700  1
  O  O28  1  0.84804500  0.06643300  0.99637700  1
  O  O29  1  0.65195500  0.56643300  0.50362300  1
  O  O30  1  0.15195500  0.93356700  0.49637700  1
  O  O31  1  0.34804500  0.43356700  0.00362300  1
  O  O32  1  0.12373200  0.90008800  0.25000000  1
  O  O33  1  0.37626800  0.40008800  0.25000000  1
  O  O34  1  0.87626800  0.09991200  0.75000000  1
  O  O35  1  0.62373200  0.59991200  0.75000000  1
  O  O36  1  0.63998000  0.59207700  0.25000000  1
  O  O37  1  0.86002000  0.09207700  0.25000000  1
  O  O38  1  0.36002000  0.40792300  0.75000000  1
  O  O39  1  0.13998000  0.90792300  0.75000000  1
  O  O40  1  0.37772300  0.70958700  0.12223400  1
  O  O41  1  0.12227700  0.20958700  0.37776600  1
  O  O42  1  0.62227700  0.29041300  0.62223400  1
  O  O43  1  0.87772300  0.79041300  0.87776600  1
  O  O44  1  0.62227700  0.29041300  0.87776600  1
  O  O45  1  0.87772300  0.79041300  0.62223400  1
  O  O46  1  0.37772300  0.70958700  0.37776600  1
  O  O47  1  0.12227700  0.20958700  0.12223400  1
  O  O48  1  0.86247800  0.79798700  0.11873400  1
  O  O49  1  0.63752200  0.29798700  0.38126600  1
  O  O50  1  0.13752200  0.20201300  0.61873400  1
  O  O51  1  0.36247800  0.70201300  0.88126600  1
  O  O52  1  0.13752200  0.20201300  0.88126600  1
  O  O53  1  0.36247800  0.70201300  0.61873400  1
  O  O54  1  0.86247800  0.79798700  0.38126600  1
  O  O55  1  0.63752200  0.29798700  0.11873400  1
  O  O56  1  0.48252900  0.01662000  0.25000000  1
  O  O57  1  0.01747100  0.51662000  0.25000000  1
  O  O58  1  0.51747100  0.98338000  0.75000000  1
  O  O59  1  0.98252900  0.48338000  0.75000000  1
