# generated using pymatgen
data_CaMn2O4
_symmetry_space_group_name_H-M   'P 1'
_cell_length_a   7.63466216
_cell_length_b   7.63466216
_cell_length_c   9.39216348
_cell_angle_alpha   59.61822022
_cell_angle_beta   59.61822022
_cell_angle_gamma   22.54052952
_symmetry_Int_Tables_number   1
_chemical_formula_structural   CaMn2O4
_chemical_formula_sum   'Ca2 Mn4 O8'
_cell_volume   179.79949210
_cell_formula_units_Z   2
loop_
 _symmetry_equiv_pos_site_id
 _symmetry_equiv_pos_as_xyz
  1  'x, y, z'
loop_
 _atom_site_type_symbol
 _atom_site_label
 _atom_site_symmetry_multiplicity
 _atom_site_fract_x
 _atom_site_fract_y
 _atom_site_fract_z
 _atom_site_occupancy
  Ca  Ca0  1  0.66280100  0.66280100  0.83805900  1
  Ca  Ca1  1  0.35316300  0.35316300  0.17935600  1
  Mn  Mn2  1  0.40477200  0.40477200  0.81458300  1
  Mn  Mn3  1  0.85291900  0.85291900  0.49758600  1
  Mn  Mn4  1  0.15060300  0.15060300  0.51763200  1
  Mn  Mn5  1  0.59784100  0.59784100  0.21144900  1
  O  O6  1  0.11283500  0.11283500  0.32971500  1
  O  O7  1  0.57167800  0.57167800  0.66958800  1
  O  O8  1  0.43132000  0.43132000  0.34548400  1
  O  O9  1  0.86784600  0.86784600  0.72032400  1
  O  O10  1  0.89825100  0.89825100  0.96737400  1
  O  O11  1  0.25351300  0.25351300  0.62834400  1
  O  O12  1  0.11779800  0.11779800  0.05032200  1
  O  O13  1  0.75000300  0.75000300  0.38036100  1
