# generated using pymatgen
data_FeRe
_symmetry_space_group_name_H-M   'P 1'
_cell_length_a   5.47567263
_cell_length_b   5.72336350
_cell_length_c   7.73360740
_cell_angle_alpha   90.03670473
_cell_angle_beta   89.65550721
_cell_angle_gamma   90.05734725
_symmetry_Int_Tables_number   1
_chemical_formula_structural   FeRe
_chemical_formula_sum   'Fe2 Re2'
_cell_volume   242.36101956
_cell_formula_units_Z   2
loop_
 _symmetry_equiv_pos_site_id
 _symmetry_equiv_pos_as_xyz
  1  'x, y, z'
loop_
 _atom_site_type_symbol
 _atom_site_label
 _atom_site_symmetry_multiplicity
 _atom_site_fract_x
 _atom_site_fract_y
 _atom_site_fract_z
 _atom_site_occupancy
  Fe  Fe0  1  0.00001100  0.50000200  0.00000400  1.0
  Fe  Fe1  1  0.49999700  0.99999950  0.49999750  1.0
  Re  Re2  1  0.50000000  0.00000400  0.99999200  1.0
  Re  Re3  1  0.99998300  0.49999150  0.50001750  1.0
