# generated using pymatgen
data_Nd15Ge9C
_symmetry_space_group_name_H-M   'P 1'
_cell_length_a   15.34695620
_cell_length_b   15.34695620
_cell_length_c   6.78437600
_cell_angle_alpha   90.00000000
_cell_angle_beta   90.00000000
_cell_angle_gamma   120.00000087
_symmetry_Int_Tables_number   1
_chemical_formula_structural   Nd15Ge9C
_chemical_formula_sum   'Nd30 Ge18 C2'
_cell_volume   1383.83733833
_cell_formula_units_Z   2
loop_
 _symmetry_equiv_pos_site_id
 _symmetry_equiv_pos_as_xyz
  1  'x, y, z'
loop_
 _atom_site_type_symbol
 _atom_site_label
 _atom_site_symmetry_multiplicity
 _atom_site_fract_x
 _atom_site_fract_y
 _atom_site_fract_z
 _atom_site_occupancy
  Nd  Nd0  1  0.98265800  0.32487000  0.50028500  1
  Nd  Nd1  1  0.67513000  0.65778900  0.50028500  1
  Nd  Nd2  1  0.34221100  0.01734200  0.50028500  1
  Nd  Nd3  1  0.67513000  0.01734200  0.50028500  1
  Nd  Nd4  1  0.34221100  0.32487000  0.50028500  1
  Nd  Nd5  1  0.98265800  0.65778900  0.50028500  1
  Nd  Nd6  1  0.01734200  0.67513000  0.00028500  1
  Nd  Nd7  1  0.32487000  0.34221100  0.00028500  1
  Nd  Nd8  1  0.65778900  0.98265800  0.00028500  1
  Nd  Nd9  1  0.32487000  0.98265800  0.00028500  1
  Nd  Nd10  1  0.65778900  0.67513000  0.00028500  1
  Nd  Nd11  1  0.01734200  0.34221100  0.00028500  1
  Nd  Nd12  1  0.58745600  0.41254400  0.22915900  1
  Nd  Nd13  1  0.58745600  0.17491300  0.22915900  1
  Nd  Nd14  1  0.82508700  0.41254400  0.22915900  1
  Nd  Nd15  1  0.41254400  0.58745600  0.72915900  1
  Nd  Nd16  1  0.41254400  0.82508700  0.72915900  1
  Nd  Nd17  1  0.17491300  0.58745600  0.72915900  1
  Nd  Nd18  1  0.74535000  0.25465000  0.78878900  1
  Nd  Nd19  1  0.74535000  0.49070100  0.78878900  1
  Nd  Nd20  1  0.50929900  0.25465000  0.78878900  1
  Nd  Nd21  1  0.25465000  0.74535000  0.28878900  1
  Nd  Nd22  1  0.25465000  0.50929900  0.28878900  1
  Nd  Nd23  1  0.49070100  0.74535000  0.28878900  1
  Nd  Nd24  1  0.91917200  0.08082800  0.23258500  1
  Nd  Nd25  1  0.91917200  0.83834500  0.23258500  1
  Nd  Nd26  1  0.16165500  0.08082800  0.23258500  1
  Nd  Nd27  1  0.08082800  0.91917200  0.73258500  1
  Nd  Nd28  1  0.08082800  0.16165500  0.73258500  1
  Nd  Nd29  1  0.83834500  0.91917200  0.73258500  1
  Ge  Ge30  1  0.86732600  0.13267400  0.77721100  1
  Ge  Ge31  1  0.86732600  0.73465200  0.77721100  1
  Ge  Ge32  1  0.26534800  0.13267400  0.77721100  1
  Ge  Ge33  1  0.13267400  0.86732600  0.27721100  1
  Ge  Ge34  1  0.13267400  0.26534800  0.27721100  1
  Ge  Ge35  1  0.73465200  0.86732600  0.27721100  1
  Ge  Ge36  1  0.53279300  0.46720700  0.76505800  1
  Ge  Ge37  1  0.53279300  0.06558600  0.76505800  1
  Ge  Ge38  1  0.93441400  0.46720700  0.76505800  1
  Ge  Ge39  1  0.46720700  0.53279300  0.26505800  1
  Ge  Ge40  1  0.46720700  0.93441400  0.26505800  1
  Ge  Ge41  1  0.06558600  0.53279300  0.26505800  1
  Ge  Ge42  1  0.80182100  0.19817900  0.21392900  1
  Ge  Ge43  1  0.80182100  0.60364300  0.21392900  1
  Ge  Ge44  1  0.39635700  0.19817900  0.21392900  1
  Ge  Ge45  1  0.19817900  0.80182100  0.71392900  1
  Ge  Ge46  1  0.19817900  0.39635700  0.71392900  1
  Ge  Ge47  1  0.60364300  0.80182100  0.71392900  1
  C  C48  1  0.66666700  0.33333300  0.00960500  1
  C  C49  1  0.33333300  0.66666700  0.50960500  1
