# generated using pymatgen
data_Tb3Cu4
_symmetry_space_group_name_H-M   'P 1'
_cell_length_a   4.15883000
_cell_length_b   6.55806600
_cell_length_c   7.90366653
_cell_angle_alpha   114.51143968
_cell_angle_beta   105.25378697
_cell_angle_gamma   90.00000001
_symmetry_Int_Tables_number   1
_chemical_formula_structural   Tb3Cu4
_chemical_formula_sum   'Tb3 Cu4'
_cell_volume   187.75828295
_cell_formula_units_Z   1
loop_
 _symmetry_equiv_pos_site_id
 _symmetry_equiv_pos_as_xyz
  1  'x, y, z'
loop_
 _atom_site_type_symbol
 _atom_site_label
 _atom_site_symmetry_multiplicity
 _atom_site_fract_x
 _atom_site_fract_y
 _atom_site_fract_z
 _atom_site_occupancy
  Tb  Tb0  1  0.12997400  0.12997400  0.25994800  1.0
  Tb  Tb1  1  0.87002600  0.87002600  0.74005200  1.0
  Tb  Tb2  1  1.00000000  0.50000000  1.00000000  1.0
  Cu  Cu3  1  0.66803100  0.47792400  0.33606200  1.0
  Cu  Cu4  1  0.33196800  0.14186100  0.66393700  1.0
  Cu  Cu5  1  0.66803200  0.85813900  0.33606300  1.0
  Cu  Cu6  1  0.33196900  0.52207600  0.66393800  1.0
