# generated using pymatgen
data_NdPd
_symmetry_space_group_name_H-M   'P 1'
_cell_length_a   4.71775700
_cell_length_b   7.52856600
_cell_length_c   8.06184600
_cell_angle_alpha   90.00000000
_cell_angle_beta   90.00000000
_cell_angle_gamma   90.00000000
_symmetry_Int_Tables_number   1
_chemical_formula_structural   NdPd
_chemical_formula_sum   'Nd4 Pd4'
_cell_volume   286.34020239
_cell_formula_units_Z   4
loop_
 _symmetry_equiv_pos_site_id
 _symmetry_equiv_pos_as_xyz
  1  'x, y, z'
loop_
 _atom_site_type_symbol
 _atom_site_label
 _atom_site_symmetry_multiplicity
 _atom_site_fract_x
 _atom_site_fract_y
 _atom_site_fract_z
 _atom_site_occupancy
  Nd  Nd0  1  0.25000000  0.48785100  0.70165300  1.0
  Nd  Nd1  1  0.75000000  0.51214900  0.29834700  1.0
  Nd  Nd2  1  0.25000000  0.98785100  0.79834700  1.0
  Nd  Nd3  1  0.75000000  0.01214900  0.20165300  1.0
  Pd  Pd4  1  0.75000000  0.29945800  0.91476600  1.0
  Pd  Pd5  1  0.25000000  0.20054200  0.41476600  1.0
  Pd  Pd6  1  0.75000000  0.79945800  0.58523400  1.0
  Pd  Pd7  1  0.25000000  0.70054200  0.08523400  1.0
