# generated using pymatgen
data_DyCu
_symmetry_space_group_name_H-M   'P 1'
_cell_length_a   3.65158000
_cell_length_b   7.63002800
_cell_length_c   7.63002800
_cell_angle_alpha   90.00000000
_cell_angle_beta   90.00000000
_cell_angle_gamma   90.00000000
_symmetry_Int_Tables_number   1
_chemical_formula_structural   DyCu
_chemical_formula_sum   'Dy4 Cu4'
_cell_volume   212.58522795
_cell_formula_units_Z   4
loop_
 _symmetry_equiv_pos_site_id
 _symmetry_equiv_pos_as_xyz
  1  'x, y, z'
loop_
 _atom_site_type_symbol
 _atom_site_label
 _atom_site_symmetry_multiplicity
 _atom_site_fract_x
 _atom_site_fract_y
 _atom_site_fract_z
 _atom_site_occupancy
  Dy  Dy0  1  0.50000000  0.67673500  0.17673500  1.0
  Dy  Dy1  1  0.50000000  0.32326500  0.82326500  1.0
  Dy  Dy2  1  0.50000000  0.17673500  0.32326500  1.0
  Dy  Dy3  1  0.50000000  0.82326500  0.67673500  1.0
  Cu  Cu4  1  1.00000000  0.11702000  0.61702000  1.0
  Cu  Cu5  1  1.00000000  0.88298000  0.38298000  1.0
  Cu  Cu6  1  1.00000000  0.61702000  0.88298000  1.0
  Cu  Cu7  1  1.00000000  0.38298000  0.11702000  1.0
