# generated using pymatgen
data_Cr3Te4
_symmetry_space_group_name_H-M   'P 1'
_cell_length_a   7.30350655
_cell_length_b   7.30350655
_cell_length_c   6.98360386
_cell_angle_alpha   62.94916168
_cell_angle_beta   62.94916168
_cell_angle_gamma   31.90269485
_symmetry_Int_Tables_number   1
_chemical_formula_structural   Cr3Te4
_chemical_formula_sum   'Cr3 Te4'
_cell_volume   173.45148458
_cell_formula_units_Z   1
loop_
 _symmetry_equiv_pos_site_id
 _symmetry_equiv_pos_as_xyz
  1  'x, y, z'
loop_
 _atom_site_type_symbol
 _atom_site_label
 _atom_site_symmetry_multiplicity
 _atom_site_fract_x
 _atom_site_fract_y
 _atom_site_fract_z
 _atom_site_occupancy
  Cr  Cr0  1  0.00000000  0.00000000  0.00000000  1
  Cr  Cr1  1  0.26070300  0.26070300  0.72019300  1
  Cr  Cr2  1  0.73929700  0.73929700  0.27980700  1
  Te  Te3  1  0.36611900  0.36611900  0.97528300  1
  Te  Te4  1  0.63388100  0.63388100  0.02471700  1
  Te  Te5  1  0.12057400  0.12057400  0.54954500  1
  Te  Te6  1  0.87942600  0.87942600  0.45045500  1
