# generated using pymatgen
data_UPd
_symmetry_space_group_name_H-M   'P 1'
_cell_length_a   3.79963700
_cell_length_b   7.65481600
_cell_length_c   7.65481600
_cell_angle_alpha   90.00000000
_cell_angle_beta   90.00000000
_cell_angle_gamma   90.00000000
_symmetry_Int_Tables_number   1
_chemical_formula_structural   UPd
_chemical_formula_sum   'U4 Pd4'
_cell_volume   222.64431995
_cell_formula_units_Z   4
loop_
 _symmetry_equiv_pos_site_id
 _symmetry_equiv_pos_as_xyz
  1  'x, y, z'
loop_
 _atom_site_type_symbol
 _atom_site_label
 _atom_site_symmetry_multiplicity
 _atom_site_fract_x
 _atom_site_fract_y
 _atom_site_fract_z
 _atom_site_occupancy
  U  U0  1  0.50000000  0.32824500  0.82824500  1.0
  U  U1  1  0.50000000  0.67175500  0.17175500  1.0
  U  U2  1  0.50000000  0.82824500  0.67175500  1.0
  U  U3  1  0.50000000  0.17175500  0.32824500  1.0
  Pd  Pd4  1  0.00000000  0.36864800  0.13135200  1.0
  Pd  Pd5  1  0.00000000  0.13135200  0.63135200  1.0
  Pd  Pd6  1  0.00000000  0.86864800  0.36864800  1.0
  Pd  Pd7  1  0.00000000  0.63135200  0.86864800  1.0
