# generated using pymatgen
data_SmCu2
_symmetry_space_group_name_H-M   'P 1'
_cell_length_a   4.36472600
_cell_length_b   5.55031091
_cell_length_c   5.55031091
_cell_angle_alpha   79.03460359
_cell_angle_beta   66.84645624
_cell_angle_gamma   66.84645624
_symmetry_Int_Tables_number   1
_chemical_formula_structural   SmCu2
_chemical_formula_sum   'Sm2 Cu4'
_cell_volume   113.57071727
_cell_formula_units_Z   2
loop_
 _symmetry_equiv_pos_site_id
 _symmetry_equiv_pos_as_xyz
  1  'x, y, z'
loop_
 _atom_site_type_symbol
 _atom_site_label
 _atom_site_symmetry_multiplicity
 _atom_site_fract_x
 _atom_site_fract_y
 _atom_site_fract_z
 _atom_site_occupancy
  Sm  Sm0  1  0.46205700  0.28794300  0.78794300  1.0
  Sm  Sm1  1  0.53794300  0.71205700  0.21205700  1.0
  Cu  Cu2  1  0.83463700  0.71552800  0.61519800  1.0
  Cu  Cu3  1  0.16536300  0.28447200  0.38480200  1.0
  Cu  Cu4  1  0.16536300  0.88480200  0.78447200  1.0
  Cu  Cu5  1  0.83463700  0.11519800  0.21552800  1.0
