# generated using pymatgen
data_TbNi
_symmetry_space_group_name_H-M   'P 1'
_cell_length_a   3.78416300
_cell_length_b   7.49071200
_cell_length_c   7.49071123
_cell_angle_alpha   120.00000338
_cell_angle_beta   90.00000000
_cell_angle_gamma   90.00000000
_symmetry_Int_Tables_number   1
_chemical_formula_structural   TbNi
_chemical_formula_sum   'Tb3 Ni3'
_cell_volume   183.88512810
_cell_formula_units_Z   3
loop_
 _symmetry_equiv_pos_site_id
 _symmetry_equiv_pos_as_xyz
  1  'x, y, z'
loop_
 _atom_site_type_symbol
 _atom_site_label
 _atom_site_symmetry_multiplicity
 _atom_site_fract_x
 _atom_site_fract_y
 _atom_site_fract_z
 _atom_site_occupancy
  Tb  Tb0  1  0.50000000  1.00000000  0.58905800  1.0
  Tb  Tb1  1  0.50000000  0.41094200  0.41094200  1.0
  Tb  Tb2  1  0.50000000  0.58905800  0.00000000  1.0
  Ni  Ni3  1  0.50000000  0.00000000  0.00000000  1.0
  Ni  Ni4  1  1.00000000  0.33333333  0.66666667  1.0
  Ni  Ni5  1  1.00000000  0.66666667  0.33333333  1.0
