# generated using pymatgen
data_Ti
_symmetry_space_group_name_H-M   'P 1'
_cell_length_a   5.50753500
_cell_length_b   5.53767627
_cell_length_c   24.86155876
_cell_angle_alpha   96.30260549
_cell_angle_beta   89.91851186
_cell_angle_gamma   89.68204925
_symmetry_Int_Tables_number   1
_chemical_formula_structural   Ti
_chemical_formula_sum   Ti10
_cell_volume   753.65525838
_cell_formula_units_Z   10
loop_
 _symmetry_equiv_pos_site_id
 _symmetry_equiv_pos_as_xyz
  1  'x, y, z'
loop_
 _atom_site_type_symbol
 _atom_site_label
 _atom_site_symmetry_multiplicity
 _atom_site_fract_x
 _atom_site_fract_y
 _atom_site_fract_z
 _atom_site_occupancy
  Ti  Ti0  1  0.49858100  0.90961000  0.83817500  1.0
  Ti  Ti1  1  0.50675800  0.07455800  0.16667700  1.0
  Ti  Ti2  1  0.00346200  0.40941500  0.83867000  1.0
  Ti  Ti3  1  0.00950300  0.56050900  0.16512600  1.0
  Ti  Ti4  1  0.50041800  0.98783100  0.99808000  1.0
  Ti  Ti5  1  0.00172500  0.48387200  0.99922800  1.0
  Ti  Ti6  1  0.49733300  0.82394500  0.66299500  1.0
  Ti  Ti7  1  0.50791600  0.14920100  0.33764000  1.0
  Ti  Ti8  1  0.00449600  0.32444900  0.66322200  1.0
  Ti  Ti9  1  0.99722600  0.66598500  0.33768000  1.0
