# generated using pymatgen
data_GdV
_symmetry_space_group_name_H-M   'P 1'
_cell_length_a   6.07601767
_cell_length_b   6.07601767
_cell_length_c   6.07601767
_cell_angle_alpha   106.18344087
_cell_angle_beta   106.18344088
_cell_angle_gamma   116.26815676
_symmetry_Int_Tables_number   1
_chemical_formula_structural   GdV
_chemical_formula_sum   'Gd2 V2'
_cell_volume   170.83383761
_cell_formula_units_Z   2
loop_
 _symmetry_equiv_pos_site_id
 _symmetry_equiv_pos_as_xyz
  1  'x, y, z'
loop_
 _atom_site_type_symbol
 _atom_site_label
 _atom_site_symmetry_multiplicity
 _atom_site_fract_x
 _atom_site_fract_y
 _atom_site_fract_z
 _atom_site_occupancy
  Gd  Gd0  1  0.75000000  0.25000000  0.50000000  1.0
  Gd  Gd1  1  0.00000000  0.00000000  0.00000000  1.0
  V  V2  1  0.50000000  0.50000000  0.00000000  1.0
  V  V3  1  0.25000000  0.75000000  0.50000000  1.0
