# generated using pymatgen
data_Co
_symmetry_space_group_name_H-M   'P 1'
_cell_length_a   4.72599729
_cell_length_b   4.72602828
_cell_length_c   9.42095250
_cell_angle_alpha   89.99984605
_cell_angle_beta   89.99778168
_cell_angle_gamma   89.98710683
_symmetry_Int_Tables_number   1
_chemical_formula_structural   Co
_chemical_formula_sum   Co2
_cell_volume   210.41882305
_cell_formula_units_Z   2
loop_
 _symmetry_equiv_pos_site_id
 _symmetry_equiv_pos_as_xyz
  1  'x, y, z'
loop_
 _atom_site_type_symbol
 _atom_site_label
 _atom_site_symmetry_multiplicity
 _atom_site_fract_x
 _atom_site_fract_y
 _atom_site_fract_z
 _atom_site_occupancy
  Co  Co0  1  0.00000000  0.00000000  0.00000000  1.0
  Co  Co1  1  0.50000000  0.50000000  0.50000000  1.0
