# generated using pymatgen
data_Fe
_symmetry_space_group_name_H-M   'P 1'
_cell_length_a   5.45541100
_cell_length_b   8.93717800
_cell_length_c   9.75078461
_cell_angle_alpha   90.00000000
_cell_angle_beta   103.05473189
_cell_angle_gamma   90.00000000
_symmetry_Int_Tables_number   1
_chemical_formula_structural   Fe
_chemical_formula_sum   Fe4
_cell_volume   463.12197861
_cell_formula_units_Z   4
loop_
 _symmetry_equiv_pos_site_id
 _symmetry_equiv_pos_as_xyz
  1  'x, y, z'
loop_
 _atom_site_type_symbol
 _atom_site_label
 _atom_site_symmetry_multiplicity
 _atom_site_fract_x
 _atom_site_fract_y
 _atom_site_fract_z
 _atom_site_occupancy
  Fe  Fe0  1  0.53650800  0.84920900  0.25073000  1.0
  Fe  Fe1  1  0.96349200  0.34920900  0.74927000  1.0
  Fe  Fe2  1  0.46349200  0.15079100  0.74927000  1.0
  Fe  Fe3  1  0.03650800  0.65079100  0.25073000  1.0
