# generated using pymatgen
data_TbSiRh
_symmetry_space_group_name_H-M   'P 1'
_cell_length_a   5.45846778
_cell_length_b   5.45846778
_cell_length_c   5.17575300
_cell_angle_alpha   90.00000000
_cell_angle_beta   90.00000000
_cell_angle_gamma   134.63398858
_symmetry_Int_Tables_number   1
_chemical_formula_structural   TbSiRh
_chemical_formula_sum   'Tb2 Si2 Rh2'
_cell_volume   109.73791821
_cell_formula_units_Z   2
loop_
 _symmetry_equiv_pos_site_id
 _symmetry_equiv_pos_as_xyz
  1  'x, y, z'
loop_
 _atom_site_type_symbol
 _atom_site_label
 _atom_site_symmetry_multiplicity
 _atom_site_fract_x
 _atom_site_fract_y
 _atom_site_fract_z
 _atom_site_occupancy
  Tb  Tb0  1  0.71334200  0.28665800  0.25000000  1
  Tb  Tb1  1  0.28665800  0.71334200  0.75000000  1
  Si  Si2  1  0.00000000  0.00000000  0.50000000  1
  Si  Si3  1  0.00000000  0.00000000  0.00000000  1
  Rh  Rh4  1  0.57250700  0.42749300  0.75000000  1
  Rh  Rh5  1  0.42749300  0.57250700  0.25000000  1
