# generated using pymatgen
data_Fe
_symmetry_space_group_name_H-M   'P 1'
_cell_length_a   6.16736800
_cell_length_b   6.16736769
_cell_length_c   11.84594400
_cell_angle_alpha   90.00000000
_cell_angle_beta   90.00000000
_cell_angle_gamma   120.00000169
_symmetry_Int_Tables_number   1
_chemical_formula_structural   Fe
_chemical_formula_sum   Fe6
_cell_volume   390.21144586
_cell_formula_units_Z   6
loop_
 _symmetry_equiv_pos_site_id
 _symmetry_equiv_pos_as_xyz
  1  'x, y, z'
loop_
 _atom_site_type_symbol
 _atom_site_label
 _atom_site_symmetry_multiplicity
 _atom_site_fract_x
 _atom_site_fract_y
 _atom_site_fract_z
 _atom_site_occupancy
  Fe  Fe0  1  0.33400900  0.33400900  0.49907400  1.0
  Fe  Fe1  1  0.33400900  0.00000000  0.99907400  1.0
  Fe  Fe2  1  0.00000000  0.33400900  0.99907400  1.0
  Fe  Fe3  1  0.00000000  0.66599100  0.49907400  1.0
  Fe  Fe4  1  0.66599100  1.00000000  0.49907400  1.0
  Fe  Fe5  1  0.66599100  0.66599100  0.99907400  1.0
