# generated using pymatgen
data_Tb2Rh3
_symmetry_space_group_name_H-M   'P 1'
_cell_length_a   5.71636730
_cell_length_b   8.12734807
_cell_length_c   8.12734807
_cell_angle_alpha   93.46721651
_cell_angle_beta   108.96971919
_cell_angle_gamma   108.96971919
_symmetry_Int_Tables_number   1
_chemical_formula_structural   Tb2Rh3
_chemical_formula_sum   'Tb4 Rh6'
_cell_volume   331.80965554
_cell_formula_units_Z   2
loop_
 _symmetry_equiv_pos_site_id
 _symmetry_equiv_pos_as_xyz
  1  'x, y, z'
loop_
 _atom_site_type_symbol
 _atom_site_label
 _atom_site_symmetry_multiplicity
 _atom_site_fract_x
 _atom_site_fract_y
 _atom_site_fract_z
 _atom_site_occupancy
  Tb  Tb0  1  0.23975300  0.59907200  0.86724800  1.0
  Tb  Tb1  1  0.26024700  0.13275200  0.40092800  1.0
  Tb  Tb2  1  0.76024700  0.40092800  0.13275200  1.0
  Tb  Tb3  1  0.73975300  0.86724800  0.59907200  1.0
  Rh  Rh4  1  0.75000000  0.00200200  0.99799800  1.0
  Rh  Rh5  1  0.12633500  0.73901500  0.46042000  1.0
  Rh  Rh6  1  0.62633500  0.46042000  0.73901500  1.0
  Rh  Rh7  1  0.87366500  0.26098500  0.53958000  1.0
  Rh  Rh8  1  0.25000000  0.99799800  0.00200200  1.0
  Rh  Rh9  1  0.37366500  0.53958000  0.26098500  1.0
