# generated using pymatgen
data_Nd2Ni
_symmetry_space_group_name_H-M   'P 1'
_cell_length_a   4.25083000
_cell_length_b   4.25083020
_cell_length_c   8.26431000
_cell_angle_alpha   90.00000000
_cell_angle_beta   90.00000000
_cell_angle_gamma   119.99999843
_symmetry_Int_Tables_number   1
_chemical_formula_structural   Nd2Ni
_chemical_formula_sum   'Nd2 Ni1'
_cell_volume   129.32566855
_cell_formula_units_Z   1
loop_
 _symmetry_equiv_pos_site_id
 _symmetry_equiv_pos_as_xyz
  1  'x, y, z'
loop_
 _atom_site_type_symbol
 _atom_site_label
 _atom_site_symmetry_multiplicity
 _atom_site_fract_x
 _atom_site_fract_y
 _atom_site_fract_z
 _atom_site_occupancy
  Nd  Nd0  1  0.66666667  0.33333333  0.76748000  1.0
  Nd  Nd1  1  0.66666667  0.33333333  0.23252000  1.0
  Ni  Ni2  1  0.33333333  0.66666667  1.00000000  1.0
