# generated using pymatgen
data_DyTi
_symmetry_space_group_name_H-M   'P 1'
_cell_length_a   7.19929000
_cell_length_b   7.24247993
_cell_length_c   23.71713829
_cell_angle_alpha   81.68363334
_cell_angle_beta   81.27025341
_cell_angle_gamma   60.19707298
_symmetry_Int_Tables_number   1
_chemical_formula_structural   DyTi
_chemical_formula_sum   'Dy16 Ti16'
_cell_volume   1057.18255078
_cell_formula_units_Z   16
loop_
 _symmetry_equiv_pos_site_id
 _symmetry_equiv_pos_as_xyz
  1  'x, y, z'
loop_
 _atom_site_type_symbol
 _atom_site_label
 _atom_site_symmetry_multiplicity
 _atom_site_fract_x
 _atom_site_fract_y
 _atom_site_fract_z
 _atom_site_occupancy
  Dy  Dy0  1  0.36060000  0.90255100  0.87063600  1.0
  Dy  Dy1  1  0.50000000  0.00000000  1.00000000  1.0
  Dy  Dy2  1  0.86621300  0.90255100  0.87063600  1.0
  Dy  Dy3  1  0.63940000  0.09744900  0.12936400  1.0
  Dy  Dy4  1  0.85947700  0.39411900  0.88692700  1.0
  Dy  Dy5  1  0.13378700  0.09744900  0.12936400  1.0
  Dy  Dy6  1  0.87419000  0.87604100  0.37557900  1.0
  Dy  Dy7  1  0.00000000  0.50000000  0.50000000  1.0
  Dy  Dy8  1  0.87496300  0.37389000  0.37572000  1.0
  Dy  Dy9  1  0.74331400  0.26319500  0.25017700  1.0
  Dy  Dy10  1  0.14052300  0.60588100  0.11307300  1.0
  Dy  Dy11  1  0.37542700  0.37389000  0.37572000  1.0
  Dy  Dy12  1  0.12503700  0.62611000  0.62428000  1.0
  Dy  Dy13  1  0.25668600  0.73680500  0.74982300  1.0
  Dy  Dy14  1  0.12581000  0.12395900  0.62442100  1.0
  Dy  Dy15  1  0.62457300  0.62611000  0.62428000  1.0
  Ti  Ti16  1  0.37200300  0.38709200  0.86890200  1.0
  Ti  Ti17  1  0.62799700  0.61290800  0.13109800  1.0
  Ti  Ti18  1  0.50000000  0.50000000  1.00000000  1.0
  Ti  Ti19  1  0.00000000  0.50000000  1.00000000  1.0
  Ti  Ti20  1  0.00000000  0.00000000  0.00000000  1.0
  Ti  Ti21  1  0.76386200  0.73813300  0.24846700  1.0
  Ti  Ti22  1  0.26013400  0.23088200  0.24885000  1.0
  Ti  Ti23  1  0.00000000  0.00000000  0.50000000  1.0
  Ti  Ti24  1  0.50000000  0.00000000  0.50000000  1.0
  Ti  Ti25  1  0.24953800  0.73813300  0.24846700  1.0
  Ti  Ti26  1  0.37791300  0.87070000  0.37347400  1.0
  Ti  Ti27  1  0.50000000  0.50000000  0.50000000  1.0
  Ti  Ti28  1  0.23613800  0.26186700  0.75153300  1.0
  Ti  Ti29  1  0.75046200  0.26186700  0.75153300  1.0
  Ti  Ti30  1  0.62208700  0.12930000  0.62652600  1.0
  Ti  Ti31  1  0.73986600  0.76911800  0.75115000  1.0
