# generated using pymatgen
data_Fe
_symmetry_space_group_name_H-M   'P 1'
_cell_length_a   4.90523463
_cell_length_b   7.16838008
_cell_length_c   8.25683800
_cell_angle_alpha   89.99928784
_cell_angle_beta   89.99934794
_cell_angle_gamma   107.10820064
_symmetry_Int_Tables_number   1
_chemical_formula_structural   Fe
_chemical_formula_sum   Fe2
_cell_volume   277.48486374
_cell_formula_units_Z   2
loop_
 _symmetry_equiv_pos_site_id
 _symmetry_equiv_pos_as_xyz
  1  'x, y, z'
loop_
 _atom_site_type_symbol
 _atom_site_label
 _atom_site_symmetry_multiplicity
 _atom_site_fract_x
 _atom_site_fract_y
 _atom_site_fract_z
 _atom_site_occupancy
  Fe  Fe0  1  0.78093400  0.26515400  0.99906300  1.0
  Fe  Fe1  1  0.21905000  0.73478400  0.49905500  1.0
