# generated using pymatgen
data_Sr2Fe2O5
_symmetry_space_group_name_H-M   'P 1'
_cell_length_a   5.61290900
_cell_length_b   11.59251900
_cell_length_c   15.66460600
_cell_angle_alpha   90.00000000
_cell_angle_beta   90.00000000
_cell_angle_gamma   90.00000000
_symmetry_Int_Tables_number   1
_chemical_formula_structural   Sr2Fe2O5
_chemical_formula_sum   'Sr16 Fe16 O40'
_cell_volume   1019.26073328
_cell_formula_units_Z   8
loop_
 _symmetry_equiv_pos_site_id
 _symmetry_equiv_pos_as_xyz
  1  'x, y, z'
loop_
 _atom_site_type_symbol
 _atom_site_label
 _atom_site_symmetry_multiplicity
 _atom_site_fract_x
 _atom_site_fract_y
 _atom_site_fract_z
 _atom_site_occupancy
  Sr  Sr0  1  0.99335900  0.25946900  0.60862900  1
  Sr  Sr1  1  0.00664100  0.74053100  0.10862900  1
  Sr  Sr2  1  0.99335900  0.24053100  0.39137100  1
  Sr  Sr3  1  0.00664100  0.75946900  0.89137100  1
  Sr  Sr4  1  0.00664100  0.74053100  0.39137100  1
  Sr  Sr5  1  0.99335900  0.25946900  0.89137100  1
  Sr  Sr6  1  0.00664100  0.75946900  0.60862900  1
  Sr  Sr7  1  0.99335900  0.24053100  0.10862900  1
  Sr  Sr8  1  0.50633200  0.00945800  0.10865500  1
  Sr  Sr9  1  0.49366800  0.99054200  0.60865500  1
  Sr  Sr10  1  0.50633200  0.49054200  0.89134500  1
  Sr  Sr11  1  0.49366800  0.50945800  0.39134500  1
  Sr  Sr12  1  0.49366800  0.99054200  0.89134500  1
  Sr  Sr13  1  0.50633200  0.00945800  0.39134500  1
  Sr  Sr14  1  0.49366800  0.50945800  0.10865500  1
  Sr  Sr15  1  0.50633200  0.49054200  0.60865500  1
  Fe  Fe16  1  0.00000000  0.50000000  0.50000000  1
  Fe  Fe17  1  0.00000000  0.50000000  0.00000000  1
  Fe  Fe18  1  0.00000000  0.00000000  0.50000000  1
  Fe  Fe19  1  0.00000000  0.00000000  0.00000000  1
  Fe  Fe20  1  0.49919400  0.25000000  0.00000000  1
  Fe  Fe21  1  0.50080600  0.75000000  0.50000000  1
  Fe  Fe22  1  0.50080600  0.75000000  0.00000000  1
  Fe  Fe23  1  0.49919400  0.25000000  0.50000000  1
  Fe  Fe24  1  0.04296200  0.53457800  0.75000000  1
  Fe  Fe25  1  0.95703800  0.46542200  0.25000000  1
  Fe  Fe26  1  0.04296200  0.96542200  0.25000000  1
  Fe  Fe27  1  0.95703800  0.03457800  0.75000000  1
  Fe  Fe28  1  0.54405700  0.78423600  0.25000000  1
  Fe  Fe29  1  0.45594300  0.21576400  0.75000000  1
  Fe  Fe30  1  0.54405700  0.71576400  0.75000000  1
  Fe  Fe31  1  0.45594300  0.28423600  0.25000000  1
  O  O32  1  0.25101200  0.62439500  0.51142700  1
  O  O33  1  0.74898800  0.37560500  0.01142700  1
  O  O34  1  0.25101200  0.87560500  0.48857300  1
  O  O35  1  0.74898800  0.12439500  0.98857300  1
  O  O36  1  0.74898800  0.37560500  0.48857300  1
  O  O37  1  0.25101200  0.62439500  0.98857300  1
  O  O38  1  0.74898800  0.12439500  0.51142700  1
  O  O39  1  0.25101200  0.87560500  0.01142700  1
  O  O40  1  0.24925800  0.12540700  0.99208400  1
  O  O41  1  0.75074200  0.87459300  0.49208400  1
  O  O42  1  0.24925800  0.37459300  0.00791600  1
  O  O43  1  0.75074200  0.62540700  0.50791600  1
  O  O44  1  0.75074200  0.87459300  0.00791600  1
  O  O45  1  0.24925800  0.12540700  0.50791600  1
  O  O46  1  0.75074200  0.62540700  0.99208400  1
  O  O47  1  0.24925800  0.37459300  0.49208400  1
  O  O48  1  0.98509800  0.47331900  0.64016700  1
  O  O49  1  0.01490200  0.52668100  0.14016700  1
  O  O50  1  0.98509800  0.02668100  0.35983300  1
  O  O51  1  0.01490200  0.97331900  0.85983300  1
  O  O52  1  0.01490200  0.52668100  0.35983300  1
  O  O53  1  0.98509800  0.47331900  0.85983300  1
  O  O54  1  0.01490200  0.97331900  0.64016700  1
  O  O55  1  0.98509800  0.02668100  0.14016700  1
  O  O56  1  0.51017100  0.22223000  0.14033600  1
  O  O57  1  0.48982900  0.77777000  0.64033600  1
  O  O58  1  0.51017100  0.27777000  0.85966400  1
  O  O59  1  0.48982900  0.72223000  0.35966400  1
  O  O60  1  0.48982900  0.77777000  0.85966400  1
  O  O61  1  0.51017100  0.22223000  0.35966400  1
  O  O62  1  0.48982900  0.72223000  0.14033600  1
  O  O63  1  0.51017100  0.27777000  0.64033600  1
  O  O64  1  0.88558900  0.81711900  0.25000000  1
  O  O65  1  0.11441100  0.18288100  0.75000000  1
  O  O66  1  0.88558900  0.68288100  0.75000000  1
  O  O67  1  0.11441100  0.31711900  0.25000000  1
  O  O68  1  0.38431700  0.93226900  0.25000000  1
  O  O69  1  0.61568300  0.06773100  0.75000000  1
  O  O70  1  0.38431700  0.56773100  0.75000000  1
  O  O71  1  0.61568300  0.43226900  0.25000000  1
