# generated using pymatgen
data_Mn
_symmetry_space_group_name_H-M   'P 1'
_cell_length_a   5.76149200
_cell_length_b   5.76152791
_cell_length_c   23.79651139
_cell_angle_alpha   96.96247789
_cell_angle_beta   96.95313739
_cell_angle_gamma   90.00000000
_symmetry_Int_Tables_number   1
_chemical_formula_structural   Mn
_chemical_formula_sum   Mn20
_cell_volume   778.24702836
_cell_formula_units_Z   20
loop_
 _symmetry_equiv_pos_site_id
 _symmetry_equiv_pos_as_xyz
  1  'x, y, z'
loop_
 _atom_site_type_symbol
 _atom_site_label
 _atom_site_symmetry_multiplicity
 _atom_site_fract_x
 _atom_site_fract_y
 _atom_site_fract_z
 _atom_site_occupancy
  Mn  Mn0  1  0.29795400  0.80066300  0.59590800  1.0
  Mn  Mn1  1  0.89751000  0.40122800  0.79502000  1.0
  Mn  Mn2  1  0.29804000  0.30003800  0.59608000  1.0
  Mn  Mn3  1  0.59893500  0.60013600  0.69561000  1.0
  Mn  Mn4  1  0.09667500  0.60013600  0.69561000  1.0
  Mn  Mn5  1  0.49727900  0.00491700  0.99455800  1.0
  Mn  Mn6  1  0.89758600  0.90117200  0.79517200  1.0
  Mn  Mn7  1  0.69963600  0.20262600  0.89472600  1.0
  Mn  Mn8  1  0.19509000  0.20262600  0.89472600  1.0
  Mn  Mn9  1  0.09762400  0.60732400  0.19524800  1.0
  Mn  Mn10  1  0.49742700  0.50494200  0.99485400  1.0
  Mn  Mn11  1  0.29835900  0.80609000  0.09498100  1.0
  Mn  Mn12  1  0.79662200  0.80609000  0.09498100  1.0
  Mn  Mn13  1  0.69798100  0.20424300  0.39596200  1.0
  Mn  Mn14  1  0.09777100  0.10687400  0.19554200  1.0
  Mn  Mn15  1  0.89633000  0.40566000  0.29576000  1.0
  Mn  Mn16  1  0.39943000  0.40566000  0.29576000  1.0
  Mn  Mn17  1  0.69808600  0.70377800  0.39617200  1.0
  Mn  Mn18  1  0.49694200  0.00131300  0.49610100  1.0
  Mn  Mn19  1  0.99915900  0.00131300  0.49610100  1.0
