# generated using pymatgen
data_Ho3Pd4
_symmetry_space_group_name_H-M   'P 1'
_cell_length_a   4.17201600
_cell_length_b   7.10777800
_cell_length_c   8.11491173
_cell_angle_alpha   115.97286866
_cell_angle_beta   104.89560228
_cell_angle_gamma   90.00000001
_symmetry_Int_Tables_number   1
_chemical_formula_structural   Ho3Pd4
_chemical_formula_sum   'Ho3 Pd4'
_cell_volume   207.30130593
_cell_formula_units_Z   1
loop_
 _symmetry_equiv_pos_site_id
 _symmetry_equiv_pos_as_xyz
  1  'x, y, z'
loop_
 _atom_site_type_symbol
 _atom_site_label
 _atom_site_symmetry_multiplicity
 _atom_site_fract_x
 _atom_site_fract_y
 _atom_site_fract_z
 _atom_site_occupancy
  Ho  Ho0  1  0.87414600  0.37414600  0.74829200  1.0
  Ho  Ho1  1  0.12585400  0.62585400  0.25170800  1.0
  Ho  Ho2  1  0.00000000  0.00000000  0.00000000  1.0
  Pd  Pd3  1  0.32439500  0.62280000  0.64879000  1.0
  Pd  Pd4  1  0.67560500  0.97401000  0.35121000  1.0
  Pd  Pd5  1  0.32439500  0.02599000  0.64879000  1.0
  Pd  Pd6  1  0.67560500  0.37720000  0.35121000  1.0
