# generated using pymatgen
data_Co
_symmetry_space_group_name_H-M   'P 1'
_cell_length_a   5.01905000
_cell_length_b   5.01905017
_cell_length_c   6.82378100
_cell_angle_alpha   90.00000000
_cell_angle_beta   90.00000000
_cell_angle_gamma   119.99999888
_symmetry_Int_Tables_number   1
_chemical_formula_structural   Co
_chemical_formula_sum   Co8
_cell_volume   148.86711635
_cell_formula_units_Z   8
loop_
 _symmetry_equiv_pos_site_id
 _symmetry_equiv_pos_as_xyz
  1  'x, y, z'
loop_
 _atom_site_type_symbol
 _atom_site_label
 _atom_site_symmetry_multiplicity
 _atom_site_fract_x
 _atom_site_fract_y
 _atom_site_fract_z
 _atom_site_occupancy
  Co  Co0  1  0.66666667  0.33333333  1.00000000  1.0
  Co  Co1  1  0.33333333  0.66666667  1.00000000  1.0
  Co  Co2  1  0.50000000  0.50000000  0.71174400  1.0
  Co  Co3  1  0.50000000  1.00000000  0.71174400  1.0
  Co  Co4  1  1.00000000  0.50000000  0.71174400  1.0
  Co  Co5  1  0.50000000  0.50000000  0.28825600  1.0
  Co  Co6  1  0.50000000  1.00000000  0.28825600  1.0
  Co  Co7  1  1.00000000  0.50000000  0.28825600  1.0
