# generated using pymatgen
data_Er
_symmetry_space_group_name_H-M   'P 1'
_cell_length_a   3.67422580
_cell_length_b   3.67422580
_cell_length_c   6.76993528
_cell_angle_alpha   74.25458999
_cell_angle_beta   74.25458999
_cell_angle_gamma   60.00000358
_symmetry_Int_Tables_number   1
_chemical_formula_structural   Er
_chemical_formula_sum   Er2
_cell_volume   75.16329238
_cell_formula_units_Z   2
loop_
 _symmetry_equiv_pos_site_id
 _symmetry_equiv_pos_as_xyz
  1  'x, y, z'
loop_
 _atom_site_type_symbol
 _atom_site_label
 _atom_site_symmetry_multiplicity
 _atom_site_fract_x
 _atom_site_fract_y
 _atom_site_fract_z
 _atom_site_occupancy
  Er  Er0  1  0.00601400  0.00601400  0.98195800  1.0
  Er  Er1  1  0.49790200  0.49790200  0.50629400  1.0
