# generated using pymatgen
data_Cr
_symmetry_space_group_name_H-M   'P 1'
_cell_length_a   5.35555220
_cell_length_b   6.58560830
_cell_length_c   6.58560830
_cell_angle_alpha   84.56109944
_cell_angle_beta   76.84472921
_cell_angle_gamma   76.84472921
_symmetry_Int_Tables_number   1
_chemical_formula_structural   Cr
_chemical_formula_sum   Cr2
_cell_volume   220.01402657
_cell_formula_units_Z   2
loop_
 _symmetry_equiv_pos_site_id
 _symmetry_equiv_pos_as_xyz
  1  'x, y, z'
loop_
 _atom_site_type_symbol
 _atom_site_label
 _atom_site_symmetry_multiplicity
 _atom_site_fract_x
 _atom_site_fract_y
 _atom_site_fract_z
 _atom_site_occupancy
  Cr  Cr0  1  0.75000000  0.90638400  0.09361600  1.0
  Cr  Cr1  1  0.25000000  0.09361600  0.90638400  1.0
