# generated using pymatgen
data_Bi
_symmetry_space_group_name_H-M   'P 1'
_cell_length_a   11.12122224
_cell_length_b   11.12122224
_cell_length_c   6.37632401
_cell_angle_alpha   77.89494331
_cell_angle_beta   77.89494331
_cell_angle_gamma   85.66990198
_symmetry_Int_Tables_number   1
_chemical_formula_structural   Bi
_chemical_formula_sum   Bi2
_cell_volume   753.54273412
_cell_formula_units_Z   2
loop_
 _symmetry_equiv_pos_site_id
 _symmetry_equiv_pos_as_xyz
  1  'x, y, z'
loop_
 _atom_site_type_symbol
 _atom_site_label
 _atom_site_symmetry_multiplicity
 _atom_site_fract_x
 _atom_site_fract_y
 _atom_site_fract_z
 _atom_site_occupancy
  Bi  Bi0  1  0.47459800  0.47459800  0.81927700  1
  Bi  Bi1  1  0.52540200  0.52540200  0.18072300  1
