# generated using pymatgen
data_NdMn2
_symmetry_space_group_name_H-M   'P 1'
_cell_length_a   5.82923500
_cell_length_b   7.59866700
_cell_length_c   8.73170700
_cell_angle_alpha   90.00000000
_cell_angle_beta   90.00000000
_cell_angle_gamma   90.00000000
_symmetry_Int_Tables_number   1
_chemical_formula_structural   NdMn2
_chemical_formula_sum   'Nd4 Mn8'
_cell_volume   386.76585902
_cell_formula_units_Z   4
loop_
 _symmetry_equiv_pos_site_id
 _symmetry_equiv_pos_as_xyz
  1  'x, y, z'
loop_
 _atom_site_type_symbol
 _atom_site_label
 _atom_site_symmetry_multiplicity
 _atom_site_fract_x
 _atom_site_fract_y
 _atom_site_fract_z
 _atom_site_occupancy
  Nd  Nd0  1  0.00000000  0.35876200  0.67190400  1.0
  Nd  Nd1  1  0.00000000  0.64123800  0.32809600  1.0
  Nd  Nd2  1  0.00000000  0.85876200  0.82809600  1.0
  Nd  Nd3  1  0.00000000  0.14123800  0.17190400  1.0
  Mn  Mn4  1  0.50000000  0.09011000  0.85045400  1.0
  Mn  Mn5  1  0.50000000  0.90989000  0.14954600  1.0
  Mn  Mn6  1  0.50000000  0.59011000  0.64954600  1.0
  Mn  Mn7  1  0.50000000  0.40989000  0.35045400  1.0
  Mn  Mn8  1  0.25659100  0.50000000  0.00000000  1.0
  Mn  Mn9  1  0.74340900  0.00000000  0.50000000  1.0
  Mn  Mn10  1  0.74340900  0.50000000  0.00000000  1.0
  Mn  Mn11  1  0.25659100  0.00000000  0.50000000  1.0
