# generated using pymatgen
data_Fe
_symmetry_space_group_name_H-M   'P 1'
_cell_length_a   3.47583646
_cell_length_b   3.47583646
_cell_length_c   16.96938620
_cell_angle_alpha   90.28540190
_cell_angle_beta   95.61629145
_cell_angle_gamma   119.86051581
_symmetry_Int_Tables_number   1
_chemical_formula_structural   Fe
_chemical_formula_sum   Fe4
_cell_volume   176.60046202
_cell_formula_units_Z   4
loop_
 _symmetry_equiv_pos_site_id
 _symmetry_equiv_pos_as_xyz
  1  'x, y, z'
loop_
 _atom_site_type_symbol
 _atom_site_label
 _atom_site_symmetry_multiplicity
 _atom_site_fract_x
 _atom_site_fract_y
 _atom_site_fract_z
 _atom_site_occupancy
  Fe  Fe0  1  0.28375733  0.64469200  0.92844933  1.0
  Fe  Fe1  1  0.71624267  0.35530800  0.07155067  1.0
  Fe  Fe2  1  0.29076233  0.13764467  0.42840700  1.0
  Fe  Fe3  1  0.70923767  0.86235533  0.57159300  1.0
