# generated using pymatgen
data_DyCu4
_symmetry_space_group_name_H-M   'P 1'
_cell_length_a   5.05751761
_cell_length_b   5.05751761
_cell_length_c   5.05751761
_cell_angle_alpha   60.00000000
_cell_angle_beta   60.00000000
_cell_angle_gamma   60.00000000
_symmetry_Int_Tables_number   1
_chemical_formula_structural   DyCu4
_chemical_formula_sum   'Dy1 Cu4'
_cell_volume   91.47390366
_cell_formula_units_Z   1
loop_
 _symmetry_equiv_pos_site_id
 _symmetry_equiv_pos_as_xyz
  1  'x, y, z'
loop_
 _atom_site_type_symbol
 _atom_site_label
 _atom_site_symmetry_multiplicity
 _atom_site_fract_x
 _atom_site_fract_y
 _atom_site_fract_z
 _atom_site_occupancy
  Dy  Dy0  1  0.00000000  0.00000000  0.00000000  1.0
  Cu  Cu1  1  0.37615300  0.87154100  0.37615300  1.0
  Cu  Cu2  1  0.37615300  0.37615300  0.37615300  1.0
  Cu  Cu3  1  0.37615300  0.37615300  0.87154100  1.0
  Cu  Cu4  1  0.87154100  0.37615300  0.37615300  1.0
