# generated using pymatgen
data_Fe
_symmetry_space_group_name_H-M   'P 1'
_cell_length_a   5.25792700
_cell_length_b   10.49857700
_cell_length_c   14.26928700
_cell_angle_alpha   90.00000000
_cell_angle_beta   90.00000000
_cell_angle_gamma   90.00000000
_symmetry_Int_Tables_number   1
_chemical_formula_structural   Fe
_chemical_formula_sum   Fe8
_cell_volume   787.67536534
_cell_formula_units_Z   8
loop_
 _symmetry_equiv_pos_site_id
 _symmetry_equiv_pos_as_xyz
  1  'x, y, z'
loop_
 _atom_site_type_symbol
 _atom_site_label
 _atom_site_symmetry_multiplicity
 _atom_site_fract_x
 _atom_site_fract_y
 _atom_site_fract_z
 _atom_site_occupancy
  Fe  Fe0  1  0.92887200  0.03251500  0.49705800  1.0
  Fe  Fe1  1  0.55019400  0.21677300  0.24948200  1.0
  Fe  Fe2  1  0.55019400  0.28322700  0.74948200  1.0
  Fe  Fe3  1  0.92887200  0.46748500  0.99705800  1.0
  Fe  Fe4  1  0.07112800  0.53251500  0.49705800  1.0
  Fe  Fe5  1  0.44980600  0.71677300  0.24948200  1.0
  Fe  Fe6  1  0.44980600  0.78322700  0.74948200  1.0
  Fe  Fe7  1  0.07112800  0.96748500  0.99705800  1.0
