# generated using pymatgen
data_GdPd
_symmetry_space_group_name_H-M   'P 1'
_cell_length_a   3.80259200
_cell_length_b   7.77246700
_cell_length_c   7.77246700
_cell_angle_alpha   90.00000000
_cell_angle_beta   90.00000000
_cell_angle_gamma   90.00000000
_symmetry_Int_Tables_number   1
_chemical_formula_structural   GdPd
_chemical_formula_sum   'Gd4 Pd4'
_cell_volume   229.71931035
_cell_formula_units_Z   4
loop_
 _symmetry_equiv_pos_site_id
 _symmetry_equiv_pos_as_xyz
  1  'x, y, z'
loop_
 _atom_site_type_symbol
 _atom_site_label
 _atom_site_symmetry_multiplicity
 _atom_site_fract_x
 _atom_site_fract_y
 _atom_site_fract_z
 _atom_site_occupancy
  Gd  Gd0  1  0.50000000  0.32591600  0.82591600  1.0
  Gd  Gd1  1  0.50000000  0.82591600  0.67408400  1.0
  Gd  Gd2  1  0.50000000  0.17408400  0.32591600  1.0
  Gd  Gd3  1  0.50000000  0.67408400  0.17408400  1.0
  Pd  Pd4  1  1.00000000  0.37184000  0.12816000  1.0
  Pd  Pd5  1  1.00000000  0.87184000  0.37184000  1.0
  Pd  Pd6  1  0.00000000  0.12816000  0.62816000  1.0
  Pd  Pd7  1  1.00000000  0.62816000  0.87184000  1.0
