# generated using pymatgen
data_Fe
_symmetry_space_group_name_H-M   'P 1'
_cell_length_a   5.59431657
_cell_length_b   6.81122367
_cell_length_c   6.81122367
_cell_angle_alpha   83.08996591
_cell_angle_beta   76.76729536
_cell_angle_gamma   76.76729536
_symmetry_Int_Tables_number   1
_chemical_formula_structural   Fe
_chemical_formula_sum   Fe2
_cell_volume   245.30420585
_cell_formula_units_Z   2
loop_
 _symmetry_equiv_pos_site_id
 _symmetry_equiv_pos_as_xyz
  1  'x, y, z'
loop_
 _atom_site_type_symbol
 _atom_site_label
 _atom_site_symmetry_multiplicity
 _atom_site_fract_x
 _atom_site_fract_y
 _atom_site_fract_z
 _atom_site_occupancy
  Fe  Fe0  1  0.25000000  0.90285000  0.09715000  1.0
  Fe  Fe1  1  0.75000000  0.09715000  0.90285000  1.0
