# generated using pymatgen
data_LaCoO3
_symmetry_space_group_name_H-M   'P 1'
_cell_length_a   5.48584711
_cell_length_b   5.59094545
_cell_length_c   7.77554650
_cell_angle_alpha   89.99004164
_cell_angle_beta   91.71853783
_cell_angle_gamma   90.93992876
_symmetry_Int_Tables_number   1
_chemical_formula_structural   LaCoO3
_chemical_formula_sum   'La4 Co4 O12'
_cell_volume   238.34499048
_cell_formula_units_Z   4
loop_
 _symmetry_equiv_pos_site_id
 _symmetry_equiv_pos_as_xyz
  1  'x, y, z'
loop_
 _atom_site_type_symbol
 _atom_site_label
 _atom_site_symmetry_multiplicity
 _atom_site_fract_x
 _atom_site_fract_y
 _atom_site_fract_z
 _atom_site_occupancy
  La  La0  1  0.24743000  0.74786200  0.49828900  1
  La  La1  1  0.75101700  0.25348200  0.00056100  1
  La  La2  1  0.74898400  0.24652500  0.49944100  1
  La  La3  1  0.25256900  0.75213600  0.00170700  1
  Co  Co4  1  0.25000000  0.25000000  0.25000000  1
  Co  Co5  1  0.75000000  0.74999800  0.75000000  1
  Co  Co6  1  0.25000000  0.24999800  0.75000000  1
  Co  Co7  1  0.75000000  0.75000000  0.25000000  1
  O  O8  1  0.96401000  0.02045800  0.28588100  1
  O  O9  1  0.47425500  0.54147700  0.78001000  1
  O  O10  1  0.02574500  0.95852100  0.71999200  1
  O  O11  1  0.53599300  0.47954600  0.21411900  1
  O  O12  1  0.75965000  0.67724900  0.49243200  1
  O  O13  1  0.25167300  0.18603300  0.99585500  1
  O  O14  1  0.24832800  0.31396700  0.50415100  1
  O  O15  1  0.74035300  0.82274600  0.00756800  1
  O  O16  1  0.53194300  0.03270900  0.71370000  1
  O  O17  1  0.02328700  0.54041400  0.21530100  1
  O  O18  1  0.47670900  0.95958400  0.28469900  1
  O  O19  1  0.96805400  0.46729000  0.78629700  1
