# generated using pymatgen
data_Mn
_symmetry_space_group_name_H-M   'P 1'
_cell_length_a   5.38879100
_cell_length_b   8.39348300
_cell_length_c   8.39347100
_cell_angle_alpha   89.99980886
_cell_angle_beta   90.00051989
_cell_angle_gamma   90.00037038
_symmetry_Int_Tables_number   1
_chemical_formula_structural   Mn
_chemical_formula_sum   Mn2
_cell_volume   379.64278402
_cell_formula_units_Z   2
loop_
 _symmetry_equiv_pos_site_id
 _symmetry_equiv_pos_as_xyz
  1  'x, y, z'
loop_
 _atom_site_type_symbol
 _atom_site_label
 _atom_site_symmetry_multiplicity
 _atom_site_fract_x
 _atom_site_fract_y
 _atom_site_fract_z
 _atom_site_occupancy
  Mn  Mn0  1  0.00000600  0.49999500  0.49976250  1.0
  Mn  Mn1  1  0.00007500  0.00002300  0.00000200  1.0
