# generated using pymatgen
data_HoCo
_symmetry_space_group_name_H-M   'P 1'
_cell_length_a   3.93782200
_cell_length_b   3.93782123
_cell_length_c   16.94721300
_cell_angle_alpha   90.00000000
_cell_angle_beta   90.00000000
_cell_angle_gamma   120.00000645
_symmetry_Int_Tables_number   1
_chemical_formula_structural   HoCo
_chemical_formula_sum   'Ho4 Co4'
_cell_volume   227.58360275
_cell_formula_units_Z   4
loop_
 _symmetry_equiv_pos_site_id
 _symmetry_equiv_pos_as_xyz
  1  'x, y, z'
loop_
 _atom_site_type_symbol
 _atom_site_label
 _atom_site_symmetry_multiplicity
 _atom_site_fract_x
 _atom_site_fract_y
 _atom_site_fract_z
 _atom_site_occupancy
  Ho  Ho0  1  0.00000000  0.00000000  0.89759100  1.0
  Ho  Ho1  1  0.00000000  0.00000000  0.10240900  1.0
  Ho  Ho2  1  0.00000000  0.00000000  0.39759100  1.0
  Ho  Ho3  1  0.00000000  0.00000000  0.60240900  1.0
  Co  Co4  1  0.66666667  0.33333333  0.49854200  1.0
  Co  Co5  1  0.33333333  0.66666667  0.50145800  1.0
  Co  Co6  1  0.33333333  0.66666667  0.99854200  1.0
  Co  Co7  1  0.66666667  0.33333333  0.00145800  1.0
