# generated using pymatgen
data_Mn
_symmetry_space_group_name_H-M   'P 1'
_cell_length_a   4.94467995
_cell_length_b   5.81607200
_cell_length_c   5.98537477
_cell_angle_alpha   60.93136651
_cell_angle_beta   73.11347227
_cell_angle_gamma   90.00000000
_symmetry_Int_Tables_number   1
_chemical_formula_structural   Mn
_chemical_formula_sum   Mn5
_cell_volume   141.89762704
_cell_formula_units_Z   5
loop_
 _symmetry_equiv_pos_site_id
 _symmetry_equiv_pos_as_xyz
  1  'x, y, z'
loop_
 _atom_site_type_symbol
 _atom_site_label
 _atom_site_symmetry_multiplicity
 _atom_site_fract_x
 _atom_site_fract_y
 _atom_site_fract_z
 _atom_site_occupancy
  Mn  Mn0  1  0.34371900  0.27923200  0.44153600  1.0
  Mn  Mn1  1  0.65628100  0.72076800  0.55846400  1.0
  Mn  Mn2  1  0.50000000  0.00000000  0.00000000  1.0
  Mn  Mn3  1  0.00000000  0.25929100  0.00000000  1.0
  Mn  Mn4  1  1.00000000  0.74070900  0.00000000  1.0
