# generated using pymatgen
data_Tb4Sb3
_symmetry_space_group_name_H-M   'P 1'
_cell_length_a   7.98596493
_cell_length_b   7.98596493
_cell_length_c   7.98596493
_cell_angle_alpha   109.47122063
_cell_angle_beta   109.47122063
_cell_angle_gamma   109.47122063
_symmetry_Int_Tables_number   1
_chemical_formula_structural   Tb4Sb3
_chemical_formula_sum   'Tb8 Sb6'
_cell_volume   392.06701365
_cell_formula_units_Z   2
loop_
 _symmetry_equiv_pos_site_id
 _symmetry_equiv_pos_as_xyz
  1  'x, y, z'
loop_
 _atom_site_type_symbol
 _atom_site_label
 _atom_site_symmetry_multiplicity
 _atom_site_fract_x
 _atom_site_fract_y
 _atom_site_fract_z
 _atom_site_occupancy
  Tb  Tb0  1  0.50000000  0.00000000  0.35410000  1
  Tb  Tb1  1  0.50000000  0.00000000  0.85410000  1
  Tb  Tb2  1  0.64590000  0.64590000  0.64590000  1
  Tb  Tb3  1  0.00000000  0.35410000  0.50000000  1
  Tb  Tb4  1  0.14590000  0.14590000  0.14590000  1
  Tb  Tb5  1  0.85410000  0.50000000  0.00000000  1
  Tb  Tb6  1  0.00000000  0.85410000  0.50000000  1
  Tb  Tb7  1  0.35410000  0.50000000  0.00000000  1
  Sb  Sb8  1  0.12500000  0.75000000  0.87500000  1
  Sb  Sb9  1  0.87500000  0.12500000  0.75000000  1
  Sb  Sb10  1  0.62500000  0.37500000  0.25000000  1
  Sb  Sb11  1  0.37500000  0.25000000  0.62500000  1
  Sb  Sb12  1  0.75000000  0.87500000  0.12500000  1
  Sb  Sb13  1  0.25000000  0.62500000  0.37500000  1
