# generated using pymatgen
data_Ti3Fe2(BiO3)6
_symmetry_space_group_name_H-M   'P 1'
_cell_length_a   4.00049879
_cell_length_b   4.00049879
_cell_length_c   24.66923968
_cell_angle_alpha   85.68327893
_cell_angle_beta   85.68327893
_cell_angle_gamma   88.28901083
_symmetry_Int_Tables_number   1
_chemical_formula_structural   Ti3Fe2(BiO3)6
_chemical_formula_sum   'Ti3 Fe2 Bi6 O18'
_cell_volume   392.45327967
_cell_formula_units_Z   1
loop_
 _symmetry_equiv_pos_site_id
 _symmetry_equiv_pos_as_xyz
  1  'x, y, z'
loop_
 _atom_site_type_symbol
 _atom_site_label
 _atom_site_symmetry_multiplicity
 _atom_site_fract_x
 _atom_site_fract_y
 _atom_site_fract_z
 _atom_site_occupancy
  Ti  Ti0  1  0.43702900  0.43702900  0.16568800  1
  Ti  Ti1  1  0.68193000  0.68193000  0.66427300  1
  Ti  Ti2  1  0.34883400  0.34883400  0.33270500  1
  Fe  Fe3  1  0.50835200  0.50835200  0.00119100  1
  Fe  Fe4  1  0.59424400  0.59424400  0.83437600  1
  Bi  Bi5  1  0.04080900  0.04080900  0.07425200  1
  Bi  Bi6  1  0.13393800  0.13393800  0.90797500  1
  Bi  Bi7  1  0.89070800  0.89070800  0.44545300  1
  Bi  Bi8  1  0.33282500  0.33282500  0.54783200  1
  Bi  Bi9  1  0.95004400  0.95004400  0.25166800  1
  Bi  Bi10  1  0.21386200  0.21386200  0.74384700  1
  O  O11  1  0.62935400  0.14677500  0.67838900  1
  O  O12  1  0.82092600  0.30565100  0.31999700  1
  O  O13  1  0.30565100  0.82092600  0.31999700  1
  O  O14  1  0.14677500  0.62935400  0.67838900  1
  O  O15  1  0.54032200  0.07240700  0.84138000  1
  O  O16  1  0.89199000  0.37620400  0.16655400  1
  O  O17  1  0.37620400  0.89199000  0.16655400  1
  O  O18  1  0.07240700  0.54032200  0.84138000  1
  O  O19  1  0.68379900  0.68379900  0.59267500  1
  O  O20  1  0.27589500  0.27589500  0.40567600  1
  O  O21  1  0.58780200  0.58780200  0.75476600  1
  O  O22  1  0.33471700  0.33471700  0.24474300  1
  O  O23  1  0.30871300  0.81050200  0.49821700  1
  O  O24  1  0.81050200  0.30871300  0.49821700  1
  O  O25  1  0.50725400  0.50725400  0.92050300  1
  O  O26  1  0.41782000  0.41782000  0.08673500  1
  O  O27  1  0.45832100  0.98677300  0.00828300  1
  O  O28  1  0.98677300  0.45832100  0.00828300  1
