# generated using pymatgen
data_EuNi
_symmetry_space_group_name_H-M   'P 1'
_cell_length_a   4.35575800
_cell_length_b   4.35575800
_cell_length_c   5.86383472
_cell_angle_alpha   111.80251930
_cell_angle_beta   111.80251929
_cell_angle_gamma   90.00000000
_symmetry_Int_Tables_number   1
_chemical_formula_structural   EuNi
_chemical_formula_sum   'Eu1 Ni1'
_cell_volume   94.66988357
_cell_formula_units_Z   1
loop_
 _symmetry_equiv_pos_site_id
 _symmetry_equiv_pos_as_xyz
  1  'x, y, z'
loop_
 _atom_site_type_symbol
 _atom_site_label
 _atom_site_symmetry_multiplicity
 _atom_site_fract_x
 _atom_site_fract_y
 _atom_site_fract_z
 _atom_site_occupancy
  Eu  Eu0  1  0.00084000  0.00084000  0.00168000  1.0
  Ni  Ni1  1  0.34667800  0.34667800  0.69335600  1.0
