# generated using pymatgen
data_GdCr6
_symmetry_space_group_name_H-M   'P 1'
_cell_length_a   5.15649000
_cell_length_b   6.80143932
_cell_length_c   6.80143932
_cell_angle_alpha   80.90806995
_cell_angle_beta   67.72369881
_cell_angle_gamma   67.72369881
_symmetry_Int_Tables_number   1
_chemical_formula_structural   GdCr6
_chemical_formula_sum   'Gd1 Cr6'
_cell_volume   204.23149246
_cell_formula_units_Z   1
loop_
 _symmetry_equiv_pos_site_id
 _symmetry_equiv_pos_as_xyz
  1  'x, y, z'
loop_
 _atom_site_type_symbol
 _atom_site_label
 _atom_site_symmetry_multiplicity
 _atom_site_fract_x
 _atom_site_fract_y
 _atom_site_fract_z
 _atom_site_occupancy
  Gd  Gd0  1  0.00000000  0.00000000  0.00000000  1.0
  Cr  Cr1  1  0.50000000  0.50000000  0.00000000  1.0
  Cr  Cr2  1  1.00000000  0.50000000  0.00000000  1.0
  Cr  Cr3  1  0.00000000  0.00000000  0.50000000  1.0
  Cr  Cr4  1  0.50000000  0.00000000  0.50000000  1.0
  Cr  Cr5  1  0.74210600  0.75789400  0.75789400  1.0
  Cr  Cr6  1  0.25789400  0.24210600  0.24210600  1.0
