# generated using pymatgen
data_GdGe2
_symmetry_space_group_name_H-M   'P 1'
_cell_length_a   8.67576122
_cell_length_b   8.67576122
_cell_length_c   8.67576122
_cell_angle_alpha   153.22439169
_cell_angle_beta   153.22439169
_cell_angle_gamma   38.22792795
_symmetry_Int_Tables_number   1
_chemical_formula_structural   GdGe2
_chemical_formula_sum   'Gd2 Ge4'
_cell_volume   132.31516332
_cell_formula_units_Z   2
loop_
 _symmetry_equiv_pos_site_id
 _symmetry_equiv_pos_as_xyz
  1  'x, y, z'
loop_
 _atom_site_type_symbol
 _atom_site_label
 _atom_site_symmetry_multiplicity
 _atom_site_fract_x
 _atom_site_fract_y
 _atom_site_fract_z
 _atom_site_occupancy
  Gd  Gd0  1  0.75000000  0.25000000  0.50000000  1
  Gd  Gd1  1  0.00000000  0.00000000  0.00000000  1
  Ge  Ge2  1  0.17159500  0.67159500  0.50000000  1
  Ge  Ge3  1  0.57840500  0.57840500  0.00000000  1
  Ge  Ge4  1  0.32840500  0.82840500  0.50000000  1
  Ge  Ge5  1  0.42159500  0.42159500  0.00000000  1
