# generated using pymatgen
data_YGe3
_symmetry_space_group_name_H-M   'P 1'
_cell_length_a   10.70880118
_cell_length_b   10.70880118
_cell_length_c   3.94230200
_cell_angle_alpha   90.00000000
_cell_angle_beta   90.00000000
_cell_angle_gamma   158.18118556
_symmetry_Int_Tables_number   1
_chemical_formula_structural   YGe3
_chemical_formula_sum   'Y2 Ge6'
_cell_volume   168.03210611
_cell_formula_units_Z   2
loop_
 _symmetry_equiv_pos_site_id
 _symmetry_equiv_pos_as_xyz
  1  'x, y, z'
loop_
 _atom_site_type_symbol
 _atom_site_label
 _atom_site_symmetry_multiplicity
 _atom_site_fract_x
 _atom_site_fract_y
 _atom_site_fract_z
 _atom_site_occupancy
  Y  Y0  1  0.41761100  0.58238900  0.25000000  1
  Y  Y1  1  0.58238900  0.41761100  0.75000000  1
  Ge  Ge2  1  0.81058500  0.18941500  0.25000000  1
  Ge  Ge3  1  0.18941500  0.81058500  0.75000000  1
  Ge  Ge4  1  0.96076400  0.03923600  0.75000000  1
  Ge  Ge5  1  0.03923600  0.96076400  0.25000000  1
  Ge  Ge6  1  0.30866600  0.69133400  0.75000000  1
  Ge  Ge7  1  0.69133400  0.30866600  0.25000000  1
