# generated using pymatgen
data_ErRu2
_symmetry_space_group_name_H-M   'P 1'
_cell_length_a   4.17681400
_cell_length_b   4.17681400
_cell_length_c   5.59528501
_cell_angle_alpha   111.91582769
_cell_angle_beta   111.91582770
_cell_angle_gamma   89.99999999
_symmetry_Int_Tables_number   1
_chemical_formula_structural   ErRu2
_chemical_formula_sum   'Er1 Ru2'
_cell_volume   82.90750497
_cell_formula_units_Z   1
loop_
 _symmetry_equiv_pos_site_id
 _symmetry_equiv_pos_as_xyz
  1  'x, y, z'
loop_
 _atom_site_type_symbol
 _atom_site_label
 _atom_site_symmetry_multiplicity
 _atom_site_fract_x
 _atom_site_fract_y
 _atom_site_fract_z
 _atom_site_occupancy
  Er  Er0  1  0.00000000  0.00000000  0.00000000  1.0
  Ru  Ru1  1  0.25000000  0.75000000  0.50000000  1.0
  Ru  Ru2  1  0.75000000  0.25000000  0.50000000  1.0
