# generated using pymatgen
data_Tm
_symmetry_space_group_name_H-M   'P 1'
_cell_length_a   4.48754400
_cell_length_b   4.48754478
_cell_length_c   6.87932200
_cell_angle_alpha   90.00000000
_cell_angle_beta   90.00000000
_cell_angle_gamma   119.99999429
_symmetry_Int_Tables_number   1
_chemical_formula_structural   Tm
_chemical_formula_sum   Tm2
_cell_volume   119.97584302
_cell_formula_units_Z   2
loop_
 _symmetry_equiv_pos_site_id
 _symmetry_equiv_pos_as_xyz
  1  'x, y, z'
loop_
 _atom_site_type_symbol
 _atom_site_label
 _atom_site_symmetry_multiplicity
 _atom_site_fract_x
 _atom_site_fract_y
 _atom_site_fract_z
 _atom_site_occupancy
  Tm  Tm0  1  0.00000000  0.00000000  0.50000000  1.0
  Tm  Tm1  1  0.00000000  0.00000000  0.00000000  1.0
