# generated using pymatgen
data_CoO
_symmetry_space_group_name_H-M   'P 1'
_cell_length_a   10.04904476
_cell_length_b   10.17319195
_cell_length_c   10.37096020
_cell_angle_alpha   94.54368623
_cell_angle_beta   84.01078620
_cell_angle_gamma   83.96681257
_symmetry_Int_Tables_number   1
_chemical_formula_structural   CoO
_chemical_formula_sum   'Co40 O40'
_cell_volume   1044.23598623
_cell_formula_units_Z   40
loop_
 _symmetry_equiv_pos_site_id
 _symmetry_equiv_pos_as_xyz
  1  'x, y, z'
loop_
 _atom_site_type_symbol
 _atom_site_label
 _atom_site_symmetry_multiplicity
 _atom_site_fract_x
 _atom_site_fract_y
 _atom_site_fract_z
 _atom_site_occupancy
  Co  Co0  1  0.33990238  0.80892782  0.07265497  1
  Co  Co1  1  0.01934835  0.34436158  0.72241072  1
  Co  Co2  1  0.26433707  0.04982420  0.04514411  1
  Co  Co3  1  0.46980150  0.57152216  0.25898261  1
  Co  Co4  1  0.99493080  0.00200188  0.53225922  1
  Co  Co5  1  0.67324852  0.39728395  0.49780308  1
  Co  Co6  1  0.02643781  0.06880207  0.85241335  1
  Co  Co7  1  0.72086824  0.75189760  0.89509278  1
  Co  Co8  1  0.80070614  0.28300588  0.67061880  1
  Co  Co9  1  0.18066359  0.55422787  0.12497128  1
  Co  Co10  1  0.17245942  0.06501277  0.34110498  1
  Co  Co11  1  0.62992523  0.50201754  0.81948375  1
  Co  Co12  1  0.24620703  0.93952738  0.62381480  1
  Co  Co13  1  0.73379683  0.05674189  0.03648350  1
  Co  Co14  1  0.83290241  0.61228688  0.62922328  1
  Co  Co15  1  0.23978976  0.63603422  0.56884339  1
  Co  Co16  1  0.48428964  0.21663507  0.74865945  1
  Co  Co17  1  0.47424373  0.09999719  0.46128453  1
  Co  Co18  1  0.72706699  0.95498003  0.63907039  1
  Co  Co19  1  0.31339337  0.53180072  0.86254044  1
  Co  Co20  1  0.50376954  0.35408364  0.03017602  1
  Co  Co21  1  0.87831180  0.59071555  0.22194963  1
  Co  Co22  1  0.58120758  0.89135713  0.20205160  1
  Co  Co23  1  0.50790882  0.90640900  0.85642459  1
  Co  Co24  1  -0.00213635  0.79598697  0.35154775  1
  Co  Co25  1  0.95022025  0.48761768  0.94965810  1
  Co  Co26  1  0.93187690  0.82342929  0.04378307  1
  Co  Co27  1  0.60217463  0.21355188  0.26349222  1
  Co  Co28  1  0.07873953  0.49930567  0.44682449  1
  Co  Co29  1  0.16242275  0.27150505  0.94596536  1
  Co  Co30  1  0.24167508  0.24099308  0.62504007  1
  Co  Co31  1  0.68405989  0.75070829  0.40395964  1
  Co  Co32  1  0.35200090  0.84176718  0.37476330  1
  Co  Co33  1  0.71635852  0.40556279  0.17563031  1
  Co  Co34  1  0.41002419  0.39796737  0.50376271  1
  Co  Co35  1  0.79730583  0.05830592  0.38351551  1
  Co  Co36  1  0.96097217  0.27490516  0.25948553  1
  Co  Co37  1  0.28385174  0.31738993  0.24451544  1
  Co  Co38  1  0.98372260  0.77597561  0.75264813  1
  Co  Co39  1  0.49842044  0.66499125  0.64251387  1
  O  O40  1  0.90640714  0.41446296  0.12368087  1
  O  O41  1  0.82131432  0.11396548  0.59332386  1
  O  O42  1  0.31942167  0.91980572  0.91370342  1
  O  O43  1  0.10501178  0.35637666  0.33213096  1
  O  O44  1  0.62511182  0.90470780  0.00628006  1
  O  O45  1  0.65236140  0.25017646  0.07130811  1
  O  O46  1  0.14615449  0.46200057  0.94726013  1
  O  O47  1  0.75412649  0.30157959  0.33613547  1
  O  O48  1  0.18858285  0.21616122  0.11742889  1
  O  O49  1  0.53940737  0.26534913  0.56564294  1
  O  O50  1  0.53731154  0.91031143  0.39797434  1
  O  O51  1  0.29382401  0.96885796  0.20450694  1
  O  O52  1  0.14226311  0.87965541  0.42608682  1
  O  O53  1  0.67678270  0.58774430  0.26056485  1
  O  O54  1  0.55764597  0.68463862  0.82230399  1
  O  O55  1  0.03517804  0.64027347  0.58993988  1
  O  O56  1  0.69947221  0.03811473  0.22901691  1
  O  O57  1  0.81705340  0.87782951  0.46054830  1
  O  O58  1  0.42319978  0.25204721  0.35002599  1
  O  O59  1  0.56209004  0.03355231  0.73984164  1
  O  O60  1  0.36084070  0.53416156  0.67280520  1
  O  O61  1  0.12811627  0.38519012  0.58070878  1
  O  O62  1  0.25429808  0.66972789  0.00683033  1
  O  O63  1  0.36071942  0.78012058  0.56493315  1
  O  O64  1  -0.01596737  0.25787104  0.87122456  1
  O  O65  1  0.05376103  0.60413799  0.30234472  1
  O  O66  1  0.91765323  0.98742870  0.97439635  1
  O  O67  1  0.67683674  0.59371834  0.53286385  1
  O  O68  1  0.81918856  0.45422456  0.74777441  1
  O  O69  1  0.79322699  0.79535558  0.72083614  1
  O  O70  1  0.34532434  0.53798492  0.40779841  1
  O  O71  1  0.28524623  0.20582635  0.78611234  1
  O  O72  1  0.36738263  0.45395519  0.14572266  1
  O  O73  1  0.45479557  0.74978582  0.20494890  1
  O  O74  1  0.98103668  0.10785563  0.34852283  1
  O  O75  1  0.88391881  0.77767602  0.20894139  1
  O  O76  1  0.91075257  0.67667618  0.91442919  1
  O  O77  1  0.27641350  0.08252895  0.50807859  1
  O  O78  1  0.06119221  0.93951773  0.70207320  1
  O  O79  1  0.49059505  0.39093812  0.85671488  1
