# generated using pymatgen
data_FeRe3
_symmetry_space_group_name_H-M   'P 1'
_cell_length_a   5.70065245
_cell_length_b   5.70602541
_cell_length_c   10.28427334
_cell_angle_alpha   93.85491862
_cell_angle_beta   93.58273223
_cell_angle_gamma   90.27054952
_symmetry_Int_Tables_number   1
_chemical_formula_structural   FeRe3
_chemical_formula_sum   'Fe1 Re3'
_cell_volume   333.10497270
_cell_formula_units_Z   1
loop_
 _symmetry_equiv_pos_site_id
 _symmetry_equiv_pos_as_xyz
  1  'x, y, z'
loop_
 _atom_site_type_symbol
 _atom_site_label
 _atom_site_symmetry_multiplicity
 _atom_site_fract_x
 _atom_site_fract_y
 _atom_site_fract_z
 _atom_site_occupancy
  Fe  Fe0  1  0.49983850  0.49991500  0.99994850  1.0
  Re  Re1  1  0.99997700  0.99996650  0.00000200  1.0
  Re  Re2  1  0.44483750  0.44452600  0.60524750  1.0
  Re  Re3  1  0.55517700  0.55547150  0.39476400  1.0
