# generated using pymatgen
data_DyMn2
_symmetry_space_group_name_H-M   'P 1'
_cell_length_a   5.10611848
_cell_length_b   5.10611848
_cell_length_c   5.10611848
_cell_angle_alpha   60.00000000
_cell_angle_beta   60.00000000
_cell_angle_gamma   60.00000000
_symmetry_Int_Tables_number   1
_chemical_formula_structural   DyMn2
_chemical_formula_sum   'Dy2 Mn4'
_cell_volume   94.13641704
_cell_formula_units_Z   2
loop_
 _symmetry_equiv_pos_site_id
 _symmetry_equiv_pos_as_xyz
  1  'x, y, z'
loop_
 _atom_site_type_symbol
 _atom_site_label
 _atom_site_symmetry_multiplicity
 _atom_site_fract_x
 _atom_site_fract_y
 _atom_site_fract_z
 _atom_site_occupancy
  Dy  Dy0  1  0.00000000  0.00000000  0.00000000  1
  Dy  Dy1  1  0.25000000  0.25000000  0.25000000  1
  Mn  Mn2  1  0.62500000  0.62500000  0.62500000  1
  Mn  Mn3  1  0.12500000  0.62500000  0.62500000  1
  Mn  Mn4  1  0.62500000  0.12500000  0.62500000  1
  Mn  Mn5  1  0.62500000  0.62500000  0.12500000  1
