# generated using pymatgen
data_Dy5Si4
_symmetry_space_group_name_H-M   'P 1'
_cell_length_a   7.43154100
_cell_length_b   7.70121200
_cell_length_c   14.57446800
_cell_angle_alpha   90.00000000
_cell_angle_beta   90.00000000
_cell_angle_gamma   90.00000000
_symmetry_Int_Tables_number   1
_chemical_formula_structural   Dy5Si4
_chemical_formula_sum   'Dy20 Si16'
_cell_volume   834.12409765
_cell_formula_units_Z   4
loop_
 _symmetry_equiv_pos_site_id
 _symmetry_equiv_pos_as_xyz
  1  'x, y, z'
loop_
 _atom_site_type_symbol
 _atom_site_label
 _atom_site_symmetry_multiplicity
 _atom_site_fract_x
 _atom_site_fract_y
 _atom_site_fract_z
 _atom_site_occupancy
  Dy  Dy0  1  0.65040200  0.98725800  0.25000000  1
  Dy  Dy1  1  0.15040200  0.51274200  0.25000000  1
  Dy  Dy2  1  0.84959800  0.48725800  0.75000000  1
  Dy  Dy3  1  0.34959800  0.01274200  0.75000000  1
  Dy  Dy4  1  0.97277600  0.81680000  0.09830000  1
  Dy  Dy5  1  0.47277600  0.68320000  0.40170000  1
  Dy  Dy6  1  0.52722400  0.31680000  0.90170000  1
  Dy  Dy7  1  0.02722400  0.18320000  0.59830000  1
  Dy  Dy8  1  0.02722400  0.18320000  0.90170000  1
  Dy  Dy9  1  0.52722400  0.31680000  0.59830000  1
  Dy  Dy10  1  0.47277600  0.68320000  0.09830000  1
  Dy  Dy11  1  0.97277600  0.81680000  0.40170000  1
  Dy  Dy12  1  0.68104500  0.82006900  0.87694400  1
  Dy  Dy13  1  0.18104500  0.67993100  0.62305600  1
  Dy  Dy14  1  0.81895500  0.32006900  0.12305600  1
  Dy  Dy15  1  0.31895500  0.17993100  0.37694400  1
  Dy  Dy16  1  0.31895500  0.17993100  0.12305600  1
  Dy  Dy17  1  0.81895500  0.32006900  0.37694400  1
  Dy  Dy18  1  0.18104500  0.67993100  0.87694400  1
  Dy  Dy19  1  0.68104500  0.82006900  0.62305600  1
  Si  Si20  1  0.76779100  0.62718000  0.25000000  1
  Si  Si21  1  0.26779100  0.87282000  0.25000000  1
  Si  Si22  1  0.73220900  0.12718000  0.75000000  1
  Si  Si23  1  0.23220900  0.37282000  0.75000000  1
  Si  Si24  1  0.02302100  0.10256000  0.25000000  1
  Si  Si25  1  0.52302100  0.39744000  0.25000000  1
  Si  Si26  1  0.47697900  0.60256000  0.75000000  1
  Si  Si27  1  0.97697900  0.89744000  0.75000000  1
  Si  Si28  1  0.85334100  0.52846900  0.96017800  1
  Si  Si29  1  0.35334100  0.97153100  0.53982200  1
  Si  Si30  1  0.64665900  0.02846900  0.03982200  1
  Si  Si31  1  0.14665900  0.47153100  0.46017800  1
  Si  Si32  1  0.14665900  0.47153100  0.03982200  1
  Si  Si33  1  0.64665900  0.02846900  0.46017800  1
  Si  Si34  1  0.35334100  0.97153100  0.96017800  1
  Si  Si35  1  0.85334100  0.52846900  0.53982200  1
