# generated using pymatgen
data_PrPt
_symmetry_space_group_name_H-M   'P 1'
_cell_length_a   5.84172840
_cell_length_b   5.84172840
_cell_length_c   4.59203800
_cell_angle_alpha   90.00000000
_cell_angle_beta   90.00000000
_cell_angle_gamma   140.37598003
_symmetry_Int_Tables_number   1
_chemical_formula_structural   PrPt
_chemical_formula_sum   'Pr2 Pt2'
_cell_volume   99.93936577
_cell_formula_units_Z   2
loop_
 _symmetry_equiv_pos_site_id
 _symmetry_equiv_pos_as_xyz
  1  'x, y, z'
loop_
 _atom_site_type_symbol
 _atom_site_label
 _atom_site_symmetry_multiplicity
 _atom_site_fract_x
 _atom_site_fract_y
 _atom_site_fract_z
 _atom_site_occupancy
  Pr  Pr0  1  0.86278500  0.13721500  0.25000000  1
  Pr  Pr1  1  0.13721500  0.86278500  0.75000000  1
  Pt  Pt2  1  0.58771600  0.41228400  0.25000000  1
  Pt  Pt3  1  0.41228400  0.58771600  0.75000000  1
