# generated using pymatgen
data_CuO2
_symmetry_space_group_name_H-M   'P 1'
_cell_length_a   6.79710555
_cell_length_b   5.90767254
_cell_length_c   3.88212220
_cell_angle_alpha   85.28443591
_cell_angle_beta   60.02039757
_cell_angle_gamma   34.69516652
_symmetry_Int_Tables_number   1
_chemical_formula_structural   CuO2
_chemical_formula_sum   'Cu1 O2'
_cell_volume   57.29775734
_cell_formula_units_Z   1
loop_
 _symmetry_equiv_pos_site_id
 _symmetry_equiv_pos_as_xyz
  1  'x, y, z'
loop_
 _atom_site_type_symbol
 _atom_site_label
 _atom_site_symmetry_multiplicity
 _atom_site_fract_x
 _atom_site_fract_y
 _atom_site_fract_z
 _atom_site_occupancy
  Cu  Cu0  1  0.50000000  0.50000000  0.50000000  1
  O  O1  1  0.10212000  0.10212000  0.89788000  1
  O  O2  1  0.89788000  0.89788000  0.10212000  1
