# generated using pymatgen
data_La2MnNiO6
_symmetry_space_group_name_H-M   'P 1'
_cell_length_a   5.54253000
_cell_length_b   5.54475223
_cell_length_c   7.82138389
_cell_angle_alpha   89.85683163
_cell_angle_beta   89.99967341
_cell_angle_gamma   89.99995848
_symmetry_Int_Tables_number   1
_chemical_formula_structural   La2MnNiO6
_chemical_formula_sum   'La4 Mn2 Ni2 O12'
_cell_volume   240.36567157
_cell_formula_units_Z   2
loop_
 _symmetry_equiv_pos_site_id
 _symmetry_equiv_pos_as_xyz
  1  'x, y, z'
loop_
 _atom_site_type_symbol
 _atom_site_label
 _atom_site_symmetry_multiplicity
 _atom_site_fract_x
 _atom_site_fract_y
 _atom_site_fract_z
 _atom_site_occupancy
  La  La0  1  0.46849400  0.50606800  0.75003600  1
  La  La1  1  0.03150500  0.00606400  0.25005300  1
  La  La2  1  0.53150600  0.49393200  0.24996400  1
  La  La3  1  0.96849500  0.99393600  0.74994700  1
  Mn  Mn4  1  0.50000000  0.00000000  0.50000000  1
  Mn  Mn5  1  0.00000000  0.50000000  0.00000000  1
  Ni  Ni6  1  0.00000000  0.50000000  0.50000000  1
  Ni  Ni7  1  0.50000000  0.00000000  0.00000000  1
  O  O8  1  0.29034900  0.27410700  0.46083400  1
  O  O9  1  0.20965400  0.77411100  0.96083200  1
  O  O10  1  0.70965100  0.72589300  0.53916600  1
  O  O11  1  0.79034600  0.22588900  0.03916800  1
  O  O12  1  0.72360200  0.70767200  0.96080800  1
  O  O13  1  0.77639400  0.20766900  0.46080900  1
  O  O14  1  0.27639800  0.29232800  0.03919200  1
  O  O15  1  0.22360600  0.79233100  0.53919100  1
  O  O16  1  0.51399100  0.07339500  0.74189300  1
  O  O17  1  0.98600800  0.57339500  0.24189400  1
  O  O18  1  0.48600900  0.92660500  0.25810700  1
  O  O19  1  0.01399200  0.42660500  0.75810600  1
