# generated using pymatgen
data_Ba6Ge25
_symmetry_space_group_name_H-M   'P 1'
_cell_length_a   14.82730200
_cell_length_b   14.82730200
_cell_length_c   14.82730200
_cell_angle_alpha   90.00000000
_cell_angle_beta   90.00000000
_cell_angle_gamma   90.00000000
_symmetry_Int_Tables_number   1
_chemical_formula_structural   Ba6Ge25
_chemical_formula_sum   'Ba24 Ge100'
_cell_volume   3259.76580632
_cell_formula_units_Z   4
loop_
 _symmetry_equiv_pos_site_id
 _symmetry_equiv_pos_as_xyz
  1  'x, y, z'
loop_
 _atom_site_type_symbol
 _atom_site_label
 _atom_site_symmetry_multiplicity
 _atom_site_fract_x
 _atom_site_fract_y
 _atom_site_fract_z
 _atom_site_occupancy
  Ba  Ba0  1  0.55935400  0.55935400  0.55935400  1
  Ba  Ba1  1  0.81005100  0.06005100  0.12500000  1
  Ba  Ba2  1  0.93994900  0.62500000  0.68994900  1
  Ba  Ba3  1  0.05935400  0.94064600  0.44064600  1
  Ba  Ba4  1  0.06005100  0.12500000  0.81005100  1
  Ba  Ba5  1  0.62500000  0.12500000  0.37500000  1
  Ba  Ba6  1  0.37500000  0.18994900  0.56005100  1
  Ba  Ba7  1  0.18994900  0.56005100  0.37500000  1
  Ba  Ba8  1  0.30935400  0.80935400  0.69064600  1
  Ba  Ba9  1  0.87500000  0.31005100  0.43994900  1
  Ba  Ba10  1  0.87500000  0.87500000  0.87500000  1
  Ba  Ba11  1  0.31005100  0.43994900  0.87500000  1
  Ba  Ba12  1  0.68994900  0.93994900  0.62500000  1
  Ba  Ba13  1  0.43994900  0.87500000  0.31005100  1
  Ba  Ba14  1  0.12500000  0.37500000  0.62500000  1
  Ba  Ba15  1  0.19064600  0.19064600  0.19064600  1
  Ba  Ba16  1  0.62500000  0.68994900  0.93994900  1
  Ba  Ba17  1  0.12500000  0.81005100  0.06005100  1
  Ba  Ba18  1  0.44064600  0.05935400  0.94064600  1
  Ba  Ba19  1  0.56005100  0.37500000  0.18994900  1
  Ba  Ba20  1  0.37500000  0.62500000  0.12500000  1
  Ba  Ba21  1  0.69064600  0.30935400  0.80935400  1
  Ba  Ba22  1  0.94064600  0.44064600  0.05935400  1
  Ba  Ba23  1  0.80935400  0.69064600  0.30935400  1
  Ge  Ge24  1  0.39799700  0.16635300  0.33343600  1
  Ge  Ge25  1  0.67458700  0.82541300  0.17458700  1
  Ge  Ge26  1  0.93412600  0.87361100  0.23891000  1
  Ge  Ge27  1  0.32541300  0.32541300  0.32541300  1
  Ge  Ge28  1  0.54229700  0.50005600  0.79717800  1
  Ge  Ge29  1  0.04717800  0.74994400  0.29229700  1
  Ge  Ge30  1  0.70770300  0.54717800  0.75005600  1
  Ge  Ge31  1  0.29229700  0.04717800  0.74994400  1
  Ge  Ge32  1  0.58343600  0.08364700  0.14799700  1
  Ge  Ge33  1  0.58052600  0.62500000  0.33052600  1
  Ge  Ge34  1  0.16656400  0.60200300  0.66635300  1
  Ge  Ge35  1  0.24994400  0.20770300  0.95282200  1
  Ge  Ge36  1  0.37361100  0.26109000  0.06587400  1
  Ge  Ge37  1  0.18412500  0.01109000  0.62361100  1
  Ge  Ge38  1  0.45770300  0.00005600  0.70282200  1
  Ge  Ge39  1  0.16947400  0.41947400  0.12500000  1
  Ge  Ge40  1  0.04229700  0.99994400  0.20282200  1
  Ge  Ge41  1  0.12361100  0.31587400  0.98891000  1
  Ge  Ge42  1  0.82541300  0.17458700  0.67458700  1
  Ge  Ge43  1  0.01109000  0.62361100  0.18412500  1
  Ge  Ge44  1  0.26109000  0.06587400  0.37361100  1
  Ge  Ge45  1  0.37500000  0.83052600  0.91947400  1
  Ge  Ge46  1  0.31587400  0.98891000  0.12361100  1
  Ge  Ge47  1  0.99994400  0.20282200  0.04229700  1
  Ge  Ge48  1  0.08343600  0.41635300  0.85200300  1
  Ge  Ge49  1  0.70282200  0.45770300  0.00005600  1
  Ge  Ge50  1  0.21949300  0.78050700  0.28050700  1
  Ge  Ge51  1  0.95770300  0.49994400  0.29717800  1
  Ge  Ge52  1  0.66635300  0.16656400  0.60200300  1
  Ge  Ge53  1  0.28050700  0.21949300  0.78050700  1
  Ge  Ge54  1  0.91947400  0.37500000  0.83052600  1
  Ge  Ge55  1  0.37638900  0.68412500  0.48891000  1
  Ge  Ge56  1  0.74994400  0.29229700  0.04717800  1
  Ge  Ge57  1  0.41656400  0.58364700  0.35200300  1
  Ge  Ge58  1  0.95282200  0.24994400  0.20770300  1
  Ge  Ge59  1  0.45282200  0.25005600  0.79229700  1
  Ge  Ge60  1  0.03050700  0.03050700  0.03050700  1
  Ge  Ge61  1  0.33343600  0.39799700  0.16635300  1
  Ge  Ge62  1  0.73891000  0.56587400  0.12638900  1
  Ge  Ge63  1  0.12638900  0.73891000  0.56587400  1
  Ge  Ge64  1  0.79717800  0.54229700  0.50005600  1
  Ge  Ge65  1  0.41635300  0.85200300  0.08343600  1
  Ge  Ge66  1  0.35200300  0.41656400  0.58364700  1
  Ge  Ge67  1  0.62500000  0.33052600  0.58052600  1
  Ge  Ge68  1  0.98891000  0.12361100  0.31587400  1
  Ge  Ge69  1  0.81587400  0.51109000  0.87638900  1
  Ge  Ge70  1  0.79229700  0.45282200  0.25005600  1
  Ge  Ge71  1  0.56587400  0.12638900  0.73891000  1
  Ge  Ge72  1  0.87361100  0.23891000  0.93412600  1
  Ge  Ge73  1  0.66656400  0.89799700  0.33364700  1
  Ge  Ge74  1  0.64799700  0.91656400  0.91635300  1
  Ge  Ge75  1  0.10200300  0.83364700  0.83343600  1
  Ge  Ge76  1  0.29717800  0.95770300  0.49994400  1
  Ge  Ge77  1  0.57541300  0.92458700  0.07541300  1
  Ge  Ge78  1  0.92458700  0.07541300  0.57541300  1
  Ge  Ge79  1  0.96949300  0.53050700  0.46949300  1
  Ge  Ge80  1  0.16635300  0.33343600  0.39799700  1
  Ge  Ge81  1  0.17458700  0.67458700  0.82541300  1
  Ge  Ge82  1  0.78050700  0.28050700  0.21949300  1
  Ge  Ge83  1  0.54717800  0.75005600  0.70770300  1
  Ge  Ge84  1  0.51109000  0.87638900  0.81587400  1
  Ge  Ge85  1  0.76109000  0.43412500  0.62638900  1
  Ge  Ge86  1  0.62361100  0.18412500  0.01109000  1
  Ge  Ge87  1  0.62638900  0.76109000  0.43412500  1
  Ge  Ge88  1  0.50005600  0.79717800  0.54229700  1
  Ge  Ge89  1  0.08364700  0.14799700  0.58343600  1
  Ge  Ge90  1  0.58364700  0.35200300  0.41656400  1
  Ge  Ge91  1  0.89799700  0.33364700  0.66656400  1
  Ge  Ge92  1  0.83052600  0.91947400  0.37500000  1
  Ge  Ge93  1  0.07541300  0.57541300  0.92458700  1
  Ge  Ge94  1  0.43412500  0.62638900  0.76109000  1
  Ge  Ge95  1  0.06587400  0.37361100  0.26109000  1
  Ge  Ge96  1  0.33364700  0.66656400  0.89799700  1
  Ge  Ge97  1  0.87500000  0.66947400  0.08052600  1
  Ge  Ge98  1  0.75005600  0.70770300  0.54717800  1
  Ge  Ge99  1  0.46949300  0.96949300  0.53050700  1
  Ge  Ge100  1  0.20282200  0.04229700  0.99994400  1
  Ge  Ge101  1  0.20770300  0.95282200  0.24994400  1
  Ge  Ge102  1  0.83343600  0.10200300  0.83364700  1
  Ge  Ge103  1  0.87638900  0.81587400  0.51109000  1
  Ge  Ge104  1  0.12500000  0.16947400  0.41947400  1
  Ge  Ge105  1  0.23891000  0.93412600  0.87361100  1
  Ge  Ge106  1  0.91635300  0.64799700  0.91656400  1
  Ge  Ge107  1  0.49994400  0.29717800  0.95770300  1
  Ge  Ge108  1  0.91656400  0.91635300  0.64799700  1
  Ge  Ge109  1  0.25005600  0.79229700  0.45282200  1
  Ge  Ge110  1  0.48891000  0.37638900  0.68412500  1
  Ge  Ge111  1  0.14799700  0.58343600  0.08364700  1
  Ge  Ge112  1  0.66947400  0.08052600  0.87500000  1
  Ge  Ge113  1  0.83364700  0.83343600  0.10200300  1
  Ge  Ge114  1  0.68412500  0.48891000  0.37638900  1
  Ge  Ge115  1  0.85200300  0.08343600  0.41635300  1
  Ge  Ge116  1  0.33052600  0.58052600  0.62500000  1
  Ge  Ge117  1  0.08052600  0.87500000  0.66947400  1
  Ge  Ge118  1  0.53050700  0.46949300  0.96949300  1
  Ge  Ge119  1  0.71949300  0.71949300  0.71949300  1
  Ge  Ge120  1  0.00005600  0.70282200  0.45770300  1
  Ge  Ge121  1  0.60200300  0.66635300  0.16656400  1
  Ge  Ge122  1  0.42458700  0.42458700  0.42458700  1
  Ge  Ge123  1  0.41947400  0.12500000  0.16947400  1
