# generated using pymatgen
data_Sr3FeMoO7
_symmetry_space_group_name_H-M   'P 1'
_cell_length_a   10.73980687
_cell_length_b   10.73980687
_cell_length_c   10.73980687
_cell_angle_alpha   158.33629125
_cell_angle_beta   158.33629125
_cell_angle_gamma   30.82536088
_symmetry_Int_Tables_number   1
_chemical_formula_structural   Sr3FeMoO7
_chemical_formula_sum   'Sr3 Fe1 Mo1 O7'
_cell_volume   168.70313433
_cell_formula_units_Z   1
loop_
 _symmetry_equiv_pos_site_id
 _symmetry_equiv_pos_as_xyz
  1  'x, y, z'
loop_
 _atom_site_type_symbol
 _atom_site_label
 _atom_site_symmetry_multiplicity
 _atom_site_fract_x
 _atom_site_fract_y
 _atom_site_fract_z
 _atom_site_occupancy
  Sr  Sr0  1  0.68598300  0.68598300  0.00000000  1
  Sr  Sr1  1  0.32054200  0.32054200  0.00000000  1
  Sr  Sr2  1  0.48717100  0.48717100  0.00000000  1
  Fe  Fe3  1  0.89623400  0.89623400  0.00000000  1
  Mo  Mo4  1  0.09681500  0.09681500  0.00000000  1
  O  O5  1  0.80097900  0.80097900  0.00000000  1
  O  O6  1  0.19266600  0.19266600  0.00000000  1
  O  O7  1  0.90648800  0.40648800  0.50000000  1
  O  O8  1  0.40648800  0.90648800  0.50000000  1
  O  O9  1  0.09980500  0.59980500  0.50000000  1
  O  O10  1  0.59980500  0.09980500  0.50000000  1
  O  O11  1  0.00702400  0.00702400  0.00000000  1
