# generated using pymatgen
data_SrTeO3
_symmetry_space_group_name_H-M   'P 1'
_cell_length_a   5.99250500
_cell_length_b   14.60495378
_cell_length_c   26.80127975
_cell_angle_alpha   83.29955334
_cell_angle_beta   83.59040345
_cell_angle_gamma   78.17669560
_symmetry_Int_Tables_number   1
_chemical_formula_structural   SrTeO3
_chemical_formula_sum   'Sr24 Te24 O72'
_cell_volume   2270.90379259
_cell_formula_units_Z   24
loop_
 _symmetry_equiv_pos_site_id
 _symmetry_equiv_pos_as_xyz
  1  'x, y, z'
loop_
 _atom_site_type_symbol
 _atom_site_label
 _atom_site_symmetry_multiplicity
 _atom_site_fract_x
 _atom_site_fract_y
 _atom_site_fract_z
 _atom_site_occupancy
  Sr  Sr0  1  0.72481600  0.56160800  0.55487300  1
  Sr  Sr1  1  0.84464600  0.93783000  0.94491200  1
  Sr  Sr2  1  0.04861700  0.32789000  0.07646500  1
  Sr  Sr3  1  0.86839600  0.34745400  0.36180300  1
  Sr  Sr4  1  0.08468400  0.54031400  0.79021900  1
  Sr  Sr5  1  0.57845700  0.15448600  0.13750600  1
  Sr  Sr6  1  0.42589700  0.84726400  0.86119900  1
  Sr  Sr7  1  0.66762400  0.44323600  0.69770000  1
  Sr  Sr8  1  0.41414900  0.96108500  0.70995000  1
  Sr  Sr9  1  0.95206600  0.67321000  0.92271700  1
  Sr  Sr10  1  0.12972100  0.65134400  0.63773400  1
  Sr  Sr11  1  0.78699600  0.75164700  0.25010800  1
  Sr  Sr12  1  0.50090700  0.49982400  0.99971100  1
  Sr  Sr13  1  0.33420000  0.55737900  0.30177900  1
  Sr  Sr14  1  0.45152800  0.17198000  0.42280300  1
  Sr  Sr15  1  0.19397600  0.94320400  0.19768800  1
  Sr  Sr16  1  0.54652600  0.82615200  0.57686800  1
  Sr  Sr17  1  0.27373300  0.43665300  0.44414600  1
  Sr  Sr18  1  0.00094700  0.99897700  0.49921800  1
  Sr  Sr19  1  0.91596200  0.46161000  0.20988900  1
  Sr  Sr20  1  0.21110500  0.25045000  0.75058200  1
  Sr  Sr21  1  0.58603900  0.03899300  0.28941700  1
  Sr  Sr22  1  0.80329600  0.05743400  0.80287000  1
  Sr  Sr23  1  0.15795900  0.06374900  0.05480200  1
  Te  Te24  1  0.25557600  0.40405800  0.61558300  1
  Te  Te25  1  0.56859800  0.68519300  0.70733100  1
  Te  Te26  1  0.86121700  0.29590500  0.49948500  1
  Te  Te27  1  0.27534500  0.09423600  0.88536500  1
  Te  Te28  1  0.65747300  0.20553800  0.99990900  1
  Te  Te29  1  0.14369900  0.84142000  0.32692100  1
  Te  Te30  1  0.13884600  0.70322500  0.50003900  1
  Te  Te31  1  0.59902400  0.88406000  0.42614400  1
  Te  Te32  1  0.96439600  0.81443700  0.79222300  1
  Te  Te33  1  0.40671400  0.11374100  0.57314400  1
  Te  Te34  1  0.72363800  0.90670500  0.11553200  1
  Te  Te35  1  0.46504500  0.41424500  0.13956700  1
  Te  Te36  1  0.03660900  0.18542600  0.20731500  1
  Te  Te37  1  0.34474400  0.79684500  0.99934700  1
  Te  Te38  1  0.90891900  0.61464500  0.07244000  1
  Te  Te39  1  0.74547400  0.59379400  0.38382700  1
  Te  Te40  1  0.01602000  0.08609000  0.36007900  1
  Te  Te41  1  0.43091700  0.31516100  0.29223100  1
  Te  Te42  1  0.53689700  0.58593700  0.86062200  1
  Te  Te43  1  0.09048100  0.38521400  0.92636000  1
  Te  Te44  1  0.68526500  0.34099800  0.82692700  1
  Te  Te45  1  0.31117200  0.66067700  0.17283200  1
  Te  Te46  1  0.98346600  0.91245500  0.63901600  1
  Te  Te47  1  0.85432900  0.15825300  0.67398000  1
  O  O48  1  0.18040800  0.89509100  0.78642800  1
  O  O49  1  0.91791400  0.69980000  0.55655700  1
  O  O50  1  0.25453600  0.66354800  0.84370500  1
  O  O51  1  0.28332600  0.89891900  0.44357300  1
  O  O52  1  0.56056900  0.67346900  0.63779100  1
  O  O53  1  0.26779700  0.33742900  0.17405600  1
  O  O54  1  0.85915200  0.60435800  0.71365700  1
  O  O55  1  0.39841300  0.69599400  0.53549000  1
  O  O56  1  0.61019600  0.00037700  0.38691900  1
  O  O57  1  0.77323800  0.07791400  0.99051600  1
  O  O58  1  0.08150800  0.29718100  0.44279700  1
  O  O59  1  0.76828700  0.83197500  0.65492200  1
  O  O60  1  0.53777600  0.99763200  0.88901600  1
  O  O61  1  0.31967400  0.36525800  0.68237000  1
  O  O62  1  0.99100300  0.49780700  0.11155200  1
  O  O63  1  0.83709600  0.21975800  0.81247200  1
  O  O64  1  0.40025500  0.99717500  0.61246500  1
  O  O65  1  0.87247800  0.28040600  0.68658500  1
  O  O66  1  0.96665200  0.48381300  0.62426600  1
  O  O67  1  0.08826500  0.87984600  0.57329400  1
  O  O68  1  0.44258200  0.32496200  0.36190300  1
  O  O69  1  0.46428200  0.00430900  0.11060200  1
  O  O70  1  0.77636300  0.16424100  0.32616300  1
  O  O71  1  0.07393200  0.01581500  0.87540900  1
  O  O72  1  0.70297100  0.90117200  0.48787500  1
  O  O73  1  0.81884900  0.10549200  0.21262700  1
  O  O74  1  0.99966000  0.50257500  0.88839300  1
  O  O75  1  0.09312600  0.59705200  0.01092600  1
  O  O76  1  0.82293100  0.20180400  0.05685100  1
  O  O77  1  0.38206900  0.59241600  0.72636700  1
  O  O78  1  0.91236200  0.11947300  0.42575200  1
  O  O79  1  0.36494100  0.13612600  0.81891800  1
  O  O80  1  0.73334800  0.66444000  0.82749800  1
  O  O81  1  0.72153800  0.09946700  0.55481000  1
  O  O82  1  0.62508400  0.60188400  0.05425400  1
  O  O83  1  0.37296600  0.39997700  0.94438500  1
  O  O84  1  0.87366600  0.82545200  0.86179100  1
  O  O85  1  0.23108000  0.92506000  0.00782900  1
  O  O86  1  0.03258900  0.51297500  0.37479600  1
  O  O87  1  0.14073600  0.39648600  0.28681600  1
  O  O88  1  0.57210400  0.49845600  0.38796400  1
  O  O89  1  0.42544500  0.50071500  0.61044200  1
  O  O90  1  0.63253900  0.86855000  0.18252800  1
  O  O91  1  0.11520400  0.59562300  0.21821800  1
  O  O92  1  0.29394300  0.09167300  0.22684000  1
  O  O93  1  0.45839700  0.38039400  0.07407000  1
  O  O94  1  0.56656200  0.63011500  0.21167000  1
  O  O95  1  0.18121000  0.79983600  0.94218000  1
  O  O96  1  0.90630800  0.39958100  0.98808200  1
  O  O97  1  0.36838700  0.19805100  0.03464500  1
  O  O98  1  0.07098900  0.09495300  0.71960000  1
  O  O99  1  0.43239400  0.37197600  0.78726900  1
  O  O100  1  0.40792700  0.87163400  0.28799100  1
  O  O101  1  0.59991200  0.30401200  0.46450200  1
  O  O102  1  0.61744000  0.40795500  0.27294500  1
  O  O103  1  0.74641000  0.33483900  0.15530200  1
  O  O104  1  0.84529100  0.42373400  0.50775900  1
  O  O105  1  0.68354500  0.63438400  0.31709200  1
  O  O106  1  0.92945900  0.90448500  0.28064700  1
  O  O107  1  0.16307900  0.57550700  0.49066500  1
  O  O108  1  0.53648100  0.62035600  0.92621000  1
  O  O109  1  0.22610000  0.83595700  0.67270700  1
  O  O110  1  0.12839500  0.71933700  0.31354600  1
  O  O111  1  0.88400300  0.40548400  0.78191900  1
  O  O112  1  0.15889600  0.78142300  0.18803200  1
  O  O113  1  0.92910700  0.98445000  0.12380400  1
  O  O114  1  0.59179000  0.12853800  0.71389400  1
  O  O115  1  0.12812700  0.17537200  0.13767800  1
  O  O116  1  0.70328500  0.90677800  0.77313500  1
  O  O117  1  0.23701400  0.16420000  0.34440400  1
  O  O118  1  0.29791800  0.09714100  0.51186100  1
  O  O119  1  0.63625000  0.80289800  0.96555200  1
