# generated using pymatgen
data_BaTi4Bi4O15
_symmetry_space_group_name_H-M   'P 1'
_cell_length_a   20.55167809
_cell_length_b   20.55167809
_cell_length_c   20.55167809
_cell_angle_alpha   169.11391948
_cell_angle_beta   169.11391948
_cell_angle_gamma   15.41857849
_symmetry_Int_Tables_number   1
_chemical_formula_structural   BaTi4Bi4O15
_chemical_formula_sum   'Ba1 Ti4 Bi4 O15'
_cell_volume   309.59189631
_cell_formula_units_Z   1
loop_
 _symmetry_equiv_pos_site_id
 _symmetry_equiv_pos_as_xyz
  1  'x, y, z'
loop_
 _atom_site_type_symbol
 _atom_site_label
 _atom_site_symmetry_multiplicity
 _atom_site_fract_x
 _atom_site_fract_y
 _atom_site_fract_z
 _atom_site_occupancy
  Ba  Ba0  1  0.00000000  0.00000000  0.00000000  1
  Ti  Ti1  1  0.65280500  0.65280500  0.00000000  1
  Ti  Ti2  1  0.34719500  0.34719500  0.00000000  1
  Ti  Ti3  1  0.55129400  0.55129400  0.00000000  1
  Ti  Ti4  1  0.44870600  0.44870600  0.00000000  1
  Bi  Bi5  1  0.89591500  0.89591500  0.00000000  1
  Bi  Bi6  1  0.10408500  0.10408500  0.00000000  1
  Bi  Bi7  1  0.78067800  0.78067800  0.00000000  1
  Bi  Bi8  1  0.21932200  0.21932200  0.00000000  1
  O  O9  1  0.69658100  0.69658100  0.00000000  1
  O  O10  1  0.30341900  0.30341900  0.00000000  1
  O  O11  1  0.59861200  0.59861200  0.00000000  1
  O  O12  1  0.40138800  0.40138800  0.00000000  1
  O  O13  1  0.75000000  0.25000000  0.50000000  1
  O  O14  1  0.25000000  0.75000000  0.50000000  1
  O  O15  1  0.85661100  0.35661100  0.50000000  1
  O  O16  1  0.35661100  0.85661100  0.50000000  1
  O  O17  1  0.14338900  0.64338900  0.50000000  1
  O  O18  1  0.64338900  0.14338900  0.50000000  1
  O  O19  1  0.94823500  0.44823500  0.50000000  1
  O  O20  1  0.44823500  0.94823500  0.50000000  1
  O  O21  1  0.05176500  0.55176500  0.50000000  1
  O  O22  1  0.55176500  0.05176500  0.50000000  1
  O  O23  1  0.50000000  0.50000000  0.00000000  1
