# generated using pymatgen
data_ZrPRu
_symmetry_space_group_name_H-M   'P 1'
_cell_length_a   6.46944276
_cell_length_b   6.46944276
_cell_length_c   3.83965400
_cell_angle_alpha   90.00000000
_cell_angle_beta   90.00000000
_cell_angle_gamma   120.00000779
_symmetry_Int_Tables_number   1
_chemical_formula_structural   ZrPRu
_chemical_formula_sum   'Zr3 P3 Ru3'
_cell_volume   139.17346439
_cell_formula_units_Z   3
loop_
 _symmetry_equiv_pos_site_id
 _symmetry_equiv_pos_as_xyz
  1  'x, y, z'
loop_
 _atom_site_type_symbol
 _atom_site_label
 _atom_site_symmetry_multiplicity
 _atom_site_fract_x
 _atom_site_fract_y
 _atom_site_fract_z
 _atom_site_occupancy
  Zr  Zr0  1  0.41520800  0.41520800  0.50000000  1
  Zr  Zr1  1  0.58479200  0.00000000  0.50000000  1
  Zr  Zr2  1  0.00000000  0.58479200  0.50000000  1
  P  P3  1  0.66666700  0.33333300  0.00000000  1
  P  P4  1  0.33333300  0.66666700  0.00000000  1
  P  P5  1  0.00000000  0.00000000  0.50000000  1
  Ru  Ru6  1  0.75511300  0.75511300  0.00000000  1
  Ru  Ru7  1  0.24488700  0.00000000  0.00000000  1
  Ru  Ru8  1  0.00000000  0.24488700  0.00000000  1
