# generated using pymatgen
data_Ce2Fe14B
_symmetry_space_group_name_H-M   'P 1'
_cell_length_a   8.75092900
_cell_length_b   8.75092900
_cell_length_c   11.94779500
_cell_angle_alpha   90.00000000
_cell_angle_beta   90.00000000
_cell_angle_gamma   90.00000000
_symmetry_Int_Tables_number   1
_chemical_formula_structural   Ce2Fe14B
_chemical_formula_sum   'Ce8 Fe56 B4'
_cell_volume   914.94730628
_cell_formula_units_Z   4
loop_
 _symmetry_equiv_pos_site_id
 _symmetry_equiv_pos_as_xyz
  1  'x, y, z'
loop_
 _atom_site_type_symbol
 _atom_site_label
 _atom_site_symmetry_multiplicity
 _atom_site_fract_x
 _atom_site_fract_y
 _atom_site_fract_z
 _atom_site_occupancy
  Ce  Ce0  1  0.85651600  0.14348400  0.00000000  1
  Ce  Ce1  1  0.35651600  0.35651600  0.50000000  1
  Ce  Ce2  1  0.64348400  0.64348400  0.50000000  1
  Ce  Ce3  1  0.14348400  0.85651600  0.00000000  1
  Ce  Ce4  1  0.73147000  0.73147000  0.00000000  1
  Ce  Ce5  1  0.76853000  0.23147000  0.50000000  1
  Ce  Ce6  1  0.23147000  0.76853000  0.50000000  1
  Ce  Ce7  1  0.26853000  0.26853000  0.00000000  1
  Fe  Fe8  1  0.35915600  0.03822300  0.17539400  1
  Fe  Fe9  1  0.64084400  0.96177700  0.17539400  1
  Fe  Fe10  1  0.03822300  0.35915600  0.82460600  1
  Fe  Fe11  1  0.53822300  0.14084400  0.67539400  1
  Fe  Fe12  1  0.46177700  0.85915600  0.67539400  1
  Fe  Fe13  1  0.14084400  0.53822300  0.32460600  1
  Fe  Fe14  1  0.85915600  0.46177700  0.32460600  1
  Fe  Fe15  1  0.96177700  0.64084400  0.82460600  1
  Fe  Fe16  1  0.64084400  0.96177700  0.82460600  1
  Fe  Fe17  1  0.35915600  0.03822300  0.82460600  1
  Fe  Fe18  1  0.96177700  0.64084400  0.17539400  1
  Fe  Fe19  1  0.46177700  0.85915600  0.32460600  1
  Fe  Fe20  1  0.53822300  0.14084400  0.32460600  1
  Fe  Fe21  1  0.85915600  0.46177700  0.67539400  1
  Fe  Fe22  1  0.14084400  0.53822300  0.67539400  1
  Fe  Fe23  1  0.03822300  0.35915600  0.17539400  1
  Fe  Fe24  1  0.56613000  0.22360300  0.12607100  1
  Fe  Fe25  1  0.43387000  0.77639700  0.12607100  1
  Fe  Fe26  1  0.22360300  0.56613000  0.87392900  1
  Fe  Fe27  1  0.72360300  0.93387000  0.62607100  1
  Fe  Fe28  1  0.27639700  0.06613000  0.62607100  1
  Fe  Fe29  1  0.93387000  0.72360300  0.37392900  1
  Fe  Fe30  1  0.06613000  0.27639700  0.37392900  1
  Fe  Fe31  1  0.77639700  0.43387000  0.87392900  1
  Fe  Fe32  1  0.43387000  0.77639700  0.87392900  1
  Fe  Fe33  1  0.56613000  0.22360300  0.87392900  1
  Fe  Fe34  1  0.77639700  0.43387000  0.12607100  1
  Fe  Fe35  1  0.27639700  0.06613000  0.37392900  1
  Fe  Fe36  1  0.72360300  0.93387000  0.37392900  1
  Fe  Fe37  1  0.06613000  0.27639700  0.62607100  1
  Fe  Fe38  1  0.93387000  0.72360300  0.62607100  1
  Fe  Fe39  1  0.22360300  0.56613000  0.12607100  1
  Fe  Fe40  1  0.68236200  0.68236200  0.75385700  1
  Fe  Fe41  1  0.31763800  0.31763800  0.75385700  1
  Fe  Fe42  1  0.68236200  0.68236200  0.24614300  1
  Fe  Fe43  1  0.18236200  0.81763800  0.25385700  1
  Fe  Fe44  1  0.81763800  0.18236200  0.25385700  1
  Fe  Fe45  1  0.81763800  0.18236200  0.74614300  1
  Fe  Fe46  1  0.18236200  0.81763800  0.74614300  1
  Fe  Fe47  1  0.31763800  0.31763800  0.24614300  1
  Fe  Fe48  1  0.90210700  0.90210700  0.79793000  1
  Fe  Fe49  1  0.09789300  0.09789300  0.79793000  1
  Fe  Fe50  1  0.90210700  0.90210700  0.20207000  1
  Fe  Fe51  1  0.40210700  0.59789300  0.29793000  1
  Fe  Fe52  1  0.59789300  0.40210700  0.29793000  1
  Fe  Fe53  1  0.59789300  0.40210700  0.70207000  1
  Fe  Fe54  1  0.40210700  0.59789300  0.70207000  1
  Fe  Fe55  1  0.09789300  0.09789300  0.20207000  1
  Fe  Fe56  1  0.00000000  0.00000000  0.38394000  1
  Fe  Fe57  1  0.50000000  0.50000000  0.88394000  1
  Fe  Fe58  1  0.50000000  0.50000000  0.11606000  1
  Fe  Fe59  1  0.00000000  0.00000000  0.61606000  1
  Fe  Fe60  1  0.50000000  0.00000000  0.00000000  1
  Fe  Fe61  1  0.50000000  0.00000000  0.50000000  1
  Fe  Fe62  1  0.00000000  0.50000000  0.50000000  1
  Fe  Fe63  1  0.00000000  0.50000000  0.00000000  1
  B  B64  1  0.62239500  0.37760500  0.00000000  1
  B  B65  1  0.12239500  0.12239500  0.50000000  1
  B  B66  1  0.87760500  0.87760500  0.50000000  1
  B  B67  1  0.37760500  0.62239500  0.00000000  1
