# generated using pymatgen
data_SrLaMn2O5
_symmetry_space_group_name_H-M   'P 1'
_cell_length_a   5.53172500
_cell_length_b   5.66080100
_cell_length_c   16.38238200
_cell_angle_alpha   90.00000000
_cell_angle_beta   90.00000000
_cell_angle_gamma   90.00000000
_symmetry_Int_Tables_number   1
_chemical_formula_structural   SrLaMn2O5
_chemical_formula_sum   'Sr4 La4 Mn8 O20'
_cell_volume   512.99781840
_cell_formula_units_Z   4
loop_
 _symmetry_equiv_pos_site_id
 _symmetry_equiv_pos_as_xyz
  1  'x, y, z'
loop_
 _atom_site_type_symbol
 _atom_site_label
 _atom_site_symmetry_multiplicity
 _atom_site_fract_x
 _atom_site_fract_y
 _atom_site_fract_z
 _atom_site_occupancy
  Sr  Sr0  1  0.24791400  0.98871800  0.63698600  1
  Sr  Sr1  1  0.74791400  0.51128200  0.36301400  1
  Sr  Sr2  1  0.25208600  0.01128200  0.13698600  1
  Sr  Sr3  1  0.75208600  0.48871800  0.86301400  1
  La  La4  1  0.25588800  0.01988100  0.85798500  1
  La  La5  1  0.75588800  0.48011900  0.14201500  1
  La  La6  1  0.24411200  0.98011900  0.35798500  1
  La  La7  1  0.74411200  0.51988100  0.64201500  1
  Mn  Mn8  1  0.24988000  0.50100600  0.74971000  1
  Mn  Mn9  1  0.74988000  0.99899400  0.25029000  1
  Mn  Mn10  1  0.25012000  0.49899400  0.24971000  1
  Mn  Mn11  1  0.75012000  0.00100600  0.75029000  1
  Mn  Mn12  1  0.20632000  0.44361500  0.49988700  1
  Mn  Mn13  1  0.70632000  0.05638500  0.50011300  1
  Mn  Mn14  1  0.29368000  0.55638500  0.99988700  1
  Mn  Mn15  1  0.79368000  0.94361500  0.00011300  1
  O  O16  1  0.32300700  0.09002300  0.49164900  1
  O  O17  1  0.82300700  0.40997700  0.50835100  1
  O  O18  1  0.17699300  0.90997700  0.99164900  1
  O  O19  1  0.67699300  0.59002300  0.00835100  1
  O  O20  1  0.98997700  0.75021000  0.75767300  1
  O  O21  1  0.48997700  0.74979000  0.24232700  1
  O  O22  1  0.51002300  0.24979000  0.25767300  1
  O  O23  1  0.01002300  0.25021000  0.74232700  1
  O  O24  1  0.51407400  0.25353400  0.74165200  1
  O  O25  1  0.01407400  0.24646600  0.25834800  1
  O  O26  1  0.98592600  0.74646600  0.24165200  1
  O  O27  1  0.48592600  0.75353400  0.75834800  1
  O  O28  1  0.27043100  0.53119400  0.61861200  1
  O  O29  1  0.77043100  0.96880600  0.38138800  1
  O  O30  1  0.22956900  0.46880600  0.11861200  1
  O  O31  1  0.72956900  0.03119400  0.88138800  1
  O  O32  1  0.24758100  0.44232100  0.88221200  1
  O  O33  1  0.74758100  0.05767900  0.11778800  1
  O  O34  1  0.25241900  0.55767900  0.38221200  1
  O  O35  1  0.75241900  0.94232100  0.61778800  1
