# generated using pymatgen
data_MgO
_symmetry_space_group_name_H-M   'P 1'
_cell_length_a   9.79490462
_cell_length_b   9.75943154
_cell_length_c   10.06863548
_cell_angle_alpha   91.47733279
_cell_angle_beta   88.38553023
_cell_angle_gamma   88.97787415
_symmetry_Int_Tables_number   1
_chemical_formula_structural   MgO
_chemical_formula_sum   'Mg40 O40'
_cell_volume   961.62018476
_cell_formula_units_Z   40
loop_
 _symmetry_equiv_pos_site_id
 _symmetry_equiv_pos_as_xyz
  1  'x, y, z'
loop_
 _atom_site_type_symbol
 _atom_site_label
 _atom_site_symmetry_multiplicity
 _atom_site_fract_x
 _atom_site_fract_y
 _atom_site_fract_z
 _atom_site_occupancy
  Mg  Mg0  1  0.48552122  0.72599607  0.14568455  1
  Mg  Mg1  1  0.15838865  0.48957428  0.84926681  1
  Mg  Mg2  1  0.70960389  0.51510411  0.94225603  1
  Mg  Mg3  1  0.50501850  0.00771392  0.69732061  1
  Mg  Mg4  1  0.22208974  0.41075716  0.48073051  1
  Mg  Mg5  1  0.21708367  0.61699362  0.15217901  1
  Mg  Mg6  1  0.64127784  0.26127835  0.82357845  1
  Mg  Mg7  1  0.59607000  0.45759790  0.60431284  1
  Mg  Mg8  1  0.03388950  0.19453808  0.33677346  1
  Mg  Mg9  1  0.99550152  0.80062545  0.42032409  1
  Mg  Mg10  1  0.93748352  0.35367942  0.02639058  1
  Mg  Mg11  1  0.19742847  0.06630543  0.54901221  1
  Mg  Mg12  1  0.04309299  0.56402456  0.61365372  1
  Mg  Mg13  1  0.17441166  0.78946572  0.95664059  1
  Mg  Mg14  1  0.93244226  0.67617822  0.87143336  1
  Mg  Mg15  1  0.90435557  0.71349266  0.17061923  1
  Mg  Mg16  1  0.82076244  0.10154089  0.98357574  1
  Mg  Mg17  1  0.68928083  0.87677629  0.94928668  1
  Mg  Mg18  1  0.52617135  0.69227801  0.78386520  1
  Mg  Mg19  1  0.32079069  0.98245225  0.26983421  1
  Mg  Mg20  1  0.81626510  0.31543957  0.46625547  1
  Mg  Mg21  1  0.71342080  0.98509407  0.31216073  1
  Mg  Mg22  1  0.39146983  0.97472253  0.95291077  1
  Mg  Mg23  1  0.41922623  0.46380121  0.96850802  1
  Mg  Mg24  1  0.75061390  0.64199655  0.43607137  1
  Mg  Mg25  1  0.54901622  0.14900334  0.10151867  1
  Mg  Mg26  1  0.26612370  0.71162039  0.37264504  1
  Mg  Mg27  1  0.23404146  0.77065999  0.64110888  1
  Mg  Mg28  1  0.29270465  0.27920158  0.21243593  1
  Mg  Mg29  1  0.44925859  0.18276504  0.43600839  1
  Mg  Mg30  1  0.68025796  0.40958580  0.19242159  1
  Mg  Mg31  1  0.47007727  0.48099055  0.35238273  1
  Mg  Mg32  1  0.97966253  0.28280405  0.73683229  1
  Mg  Mg33  1  0.02454193  0.46905593  0.27141486  1
  Mg  Mg34  1  0.33656825  0.30161376  0.71038713  1
  Mg  Mg35  1  0.02143246  0.99663653  0.81383707  1
  Mg  Mg36  1  0.52409300  0.82119091  0.49301486  1
  Mg  Mg37  1  0.76397521  0.79292030  0.67406580  1
  Mg  Mg38  1  0.18262333  0.16875089  0.98472749  1
  Mg  Mg39  1  0.81985827  0.07358947  0.60393028  1
  O  O40  1  0.70191069  0.00773052  0.10986467  1
  O  O41  1  0.72694408  0.29392735  0.00612618  1
  O  O42  1  0.94560916  0.46854485  0.86393792  1
  O  O43  1  0.84831546  0.12511778  0.39264023  1
  O  O44  1  0.55034077  0.45332049  0.80694101  1
  O  O45  1  0.42734717  0.37760662  0.52665353  1
  O  O46  1  0.41667539  0.82729676  0.67887980  1
  O  O47  1  0.90466747  0.69596518  0.56137243  1
  O  O48  1  0.47509613  0.68675093  0.34725596  1
  O  O49  1  0.10491077  0.69610206  0.77414613  1
  O  O50  1  0.06558966  0.66660913  0.27855931  1
  O  O51  1  0.86161204  0.50760959  0.14824915  1
  O  O52  1  0.37220363  0.12658128  0.61892701  1
  O  O53  1  0.28709668  0.32531122  0.90653876  1
  O  O54  1  0.29217144  0.80342995  0.17549268  1
  O  O55  1  0.21654198  0.60836278  0.52690442  1
  O  O56  1  0.20439830  0.97562894  0.88957113  1
  O  O57  1  0.73457341  0.69480802  0.85229292  1
  O  O58  1  0.14851061  0.38406665  0.67469834  1
  O  O59  1  0.34220993  0.10428110  0.10645999  1
  O  O60  1  0.97855633  0.79847501  0.01610255  1
  O  O61  1  0.54018471  0.09665835  0.87613098  1
  O  O62  1  0.50425688  0.99473289  0.35715818  1
  O  O63  1  0.80671805  0.80108997  0.32447406  1
  O  O64  1  0.50245706  0.80709536  0.96191972  1
  O  O65  1  0.50778417  0.29102305  0.24716844  1
  O  O66  1  0.01922558  0.09423370  0.64168025  1
  O  O67  1  0.66819201  0.94717465  0.58288660  1
  O  O68  1  0.56145848  0.53819879  0.08902997  1
  O  O69  1  0.18099612  0.88255539  0.46524010  1
  O  O70  1  0.62474085  0.65755818  0.59751381  1
  O  O71  1  0.23440211  0.16738174  0.37547905  1
  O  O72  1  0.07895365  0.28721445  0.16068424  1
  O  O73  1  0.81980133  0.96837759  0.81732480  1
  O  O74  1  0.68832115  0.45124424  0.39838672  1
  O  O75  1  0.27111381  0.47195543  0.27888068  1
  O  O76  1  0.26659392  0.60057722  0.97085206  1
  O  O77  1  0.76239636  0.27773725  0.65734543  1
  O  O78  1  0.99105019  0.18175778  0.91642481  1
  O  O79  1  0.00465445  0.38121689  0.44134472  1
