# generated using pymatgen
data_Sm2Co17
_symmetry_space_group_name_H-M   'P 1'
_cell_length_a   8.07647300
_cell_length_b   8.32608318
_cell_length_c   8.32608318
_cell_angle_alpha   119.97122667
_cell_angle_beta   90.00000000
_cell_angle_gamma   90.00000000
_symmetry_Int_Tables_number   1
_chemical_formula_structural   Sm2Co17
_chemical_formula_sum   'Sm4 Co34'
_cell_volume   485.02007388
_cell_formula_units_Z   2
loop_
 _symmetry_equiv_pos_site_id
 _symmetry_equiv_pos_as_xyz
  1  'x, y, z'
loop_
 _atom_site_type_symbol
 _atom_site_label
 _atom_site_symmetry_multiplicity
 _atom_site_fract_x
 _atom_site_fract_y
 _atom_site_fract_z
 _atom_site_occupancy
  Sm  Sm0  1  0.75000000  0.99992700  0.00007300  1
  Sm  Sm1  1  0.25000000  0.00007300  0.99992700  1
  Sm  Sm2  1  0.25000000  0.66659600  0.33340400  1
  Sm  Sm3  1  0.75000000  0.33340400  0.66659600  1
  Co  Co4  1  0.60722500  0.66675900  0.33324100  1
  Co  Co5  1  0.39277500  0.33324100  0.66675900  1
  Co  Co6  1  0.10722500  0.33324100  0.66675900  1
  Co  Co7  1  0.89277500  0.66675900  0.33324100  1
  Co  Co8  1  0.50000000  0.50000000  0.00000000  1
  Co  Co9  1  0.50000000  0.50000000  0.50000000  1
  Co  Co10  1  0.50000000  0.00000000  0.50000000  1
  Co  Co11  1  0.00000000  0.50000000  0.00000000  1
  Co  Co12  1  0.00000000  0.50000000  0.50000000  1
  Co  Co13  1  0.00000000  0.00000000  0.50000000  1
  Co  Co14  1  0.75000000  0.67085200  0.05116000  1
  Co  Co15  1  0.75000000  0.38071700  0.32937200  1
  Co  Co16  1  0.75000000  0.94808700  0.61905200  1
  Co  Co17  1  0.75000000  0.38094800  0.05191300  1
  Co  Co18  1  0.75000000  0.94884000  0.32914800  1
  Co  Co19  1  0.75000000  0.67062800  0.61928300  1
  Co  Co20  1  0.25000000  0.32914800  0.94884000  1
  Co  Co21  1  0.25000000  0.61928300  0.67062800  1
  Co  Co22  1  0.25000000  0.05191300  0.38094800  1
  Co  Co23  1  0.25000000  0.61905200  0.94808700  1
  Co  Co24  1  0.25000000  0.05116000  0.67085200  1
  Co  Co25  1  0.25000000  0.32937200  0.38071700  1
  Co  Co26  1  0.47892500  0.83278700  0.66570600  1
  Co  Co27  1  0.47898800  0.83276400  0.16723600  1
  Co  Co28  1  0.47892500  0.33429400  0.16721300  1
  Co  Co29  1  0.52107500  0.16721300  0.33429400  1
  Co  Co30  1  0.52101200  0.16723600  0.83276400  1
  Co  Co31  1  0.52107500  0.66570600  0.83278700  1
  Co  Co32  1  0.97892500  0.16721300  0.33429400  1
  Co  Co33  1  0.97898800  0.16723600  0.83276400  1
  Co  Co34  1  0.97892500  0.66570600  0.83278700  1
  Co  Co35  1  0.02107500  0.83278700  0.66570600  1
  Co  Co36  1  0.02101200  0.83276400  0.16723600  1
  Co  Co37  1  0.02107500  0.33429400  0.16721300  1
