# generated using pymatgen
data_Gd2Fe17
_symmetry_space_group_name_H-M   'P 1'
_cell_length_a   6.42534129
_cell_length_b   6.42534129
_cell_length_c   6.42534176
_cell_angle_alpha   83.21544285
_cell_angle_beta   83.21544285
_cell_angle_gamma   83.21544302
_symmetry_Int_Tables_number   1
_chemical_formula_structural   Gd2Fe17
_chemical_formula_sum   'Gd2 Fe17'
_cell_volume   260.10411182
_cell_formula_units_Z   1
loop_
 _symmetry_equiv_pos_site_id
 _symmetry_equiv_pos_as_xyz
  1  'x, y, z'
loop_
 _atom_site_type_symbol
 _atom_site_label
 _atom_site_symmetry_multiplicity
 _atom_site_fract_x
 _atom_site_fract_y
 _atom_site_fract_z
 _atom_site_occupancy
  Gd  Gd0  1  0.34067500  0.34067500  0.34067500  1
  Gd  Gd1  1  0.65932500  0.65932500  0.65932500  1
  Fe  Fe2  1  0.65634100  0.65634100  0.15488400  1
  Fe  Fe3  1  0.29335700  0.70664300  0.00000000  1
  Fe  Fe4  1  0.70664300  0.29335700  0.00000000  1
  Fe  Fe5  1  0.34365900  0.84511600  0.34365900  1
  Fe  Fe6  1  0.09691300  0.09691300  0.09691300  1
  Fe  Fe7  1  0.34365900  0.34365900  0.84511600  1
  Fe  Fe8  1  0.65634100  0.15488400  0.65634100  1
  Fe  Fe9  1  0.00000000  0.00000000  0.50000000  1
  Fe  Fe10  1  0.15488400  0.65634100  0.65634100  1
  Fe  Fe11  1  0.70664300  0.00000000  0.29335700  1
  Fe  Fe12  1  0.29335700  0.00000000  0.70664300  1
  Fe  Fe13  1  0.90308700  0.90308700  0.90308700  1
  Fe  Fe14  1  0.84511600  0.34365900  0.34365900  1
  Fe  Fe15  1  0.00000000  0.50000000  0.00000000  1
  Fe  Fe16  1  0.00000000  0.70664300  0.29335700  1
  Fe  Fe17  1  0.50000000  0.00000000  0.00000000  1
  Fe  Fe18  1  0.00000000  0.29335700  0.70664300  1
