# generated using pymatgen
data_NaNbO3
_symmetry_space_group_name_H-M   'P 1'
_cell_length_a   7.92643000
_cell_length_b   7.96962400
_cell_length_c   23.70330800
_cell_angle_alpha   90.00000000
_cell_angle_beta   90.00000000
_cell_angle_gamma   90.00000000
_symmetry_Int_Tables_number   1
_chemical_formula_structural   NaNbO3
_chemical_formula_sum   'Na24 Nb24 O72'
_cell_volume   1497.35377083
_cell_formula_units_Z   24
loop_
 _symmetry_equiv_pos_site_id
 _symmetry_equiv_pos_as_xyz
  1  'x, y, z'
loop_
 _atom_site_type_symbol
 _atom_site_label
 _atom_site_symmetry_multiplicity
 _atom_site_fract_x
 _atom_site_fract_y
 _atom_site_fract_z
 _atom_site_occupancy
  Na  Na0  1  0.25000000  0.01161000  0.00155900  1
  Na  Na1  1  0.25000000  0.51161000  0.49844100  1
  Na  Na2  1  0.75000000  0.98839000  0.99844100  1
  Na  Na3  1  0.75000000  0.48839000  0.50155900  1
  Na  Na4  1  0.25000000  0.00329000  0.16555100  1
  Na  Na5  1  0.25000000  0.50329000  0.33444900  1
  Na  Na6  1  0.75000000  0.99671000  0.83444900  1
  Na  Na7  1  0.75000000  0.49671000  0.66555100  1
  Na  Na8  1  0.25000000  0.00524400  0.33110600  1
  Na  Na9  1  0.25000000  0.50524400  0.16889400  1
  Na  Na10  1  0.75000000  0.99475600  0.66889400  1
  Na  Na11  1  0.75000000  0.49475600  0.83110600  1
  Na  Na12  1  0.25000000  0.00425500  0.49875500  1
  Na  Na13  1  0.25000000  0.50425500  0.00124500  1
  Na  Na14  1  0.75000000  0.99574500  0.50124500  1
  Na  Na15  1  0.75000000  0.49574500  0.99875500  1
  Na  Na16  1  0.25000000  0.99851800  0.66662000  1
  Na  Na17  1  0.25000000  0.49851800  0.83338000  1
  Na  Na18  1  0.75000000  0.00148200  0.33338000  1
  Na  Na19  1  0.75000000  0.50148200  0.16662000  1
  Na  Na20  1  0.25000000  0.00803800  0.83629000  1
  Na  Na21  1  0.25000000  0.50803800  0.66371000  1
  Na  Na22  1  0.75000000  0.99196200  0.16371000  1
  Na  Na23  1  0.75000000  0.49196200  0.33629000  1
  Nb  Nb24  1  0.00240900  0.74077300  0.08444100  1
  Nb  Nb25  1  0.49759100  0.24077300  0.41555900  1
  Nb  Nb26  1  0.50240900  0.25922700  0.91555900  1
  Nb  Nb27  1  0.99759100  0.75922700  0.58444100  1
  Nb  Nb28  1  0.99759100  0.25922700  0.91555900  1
  Nb  Nb29  1  0.50240900  0.75922700  0.58444100  1
  Nb  Nb30  1  0.49759100  0.74077300  0.08444100  1
  Nb  Nb31  1  0.00240900  0.24077300  0.41555900  1
  Nb  Nb32  1  0.00208800  0.75916800  0.91767300  1
  Nb  Nb33  1  0.49791200  0.25916800  0.58232700  1
  Nb  Nb34  1  0.50208800  0.24083200  0.08232700  1
  Nb  Nb35  1  0.99791200  0.74083200  0.41767300  1
  Nb  Nb36  1  0.99791200  0.24083200  0.08232700  1
  Nb  Nb37  1  0.50208800  0.74083200  0.41767300  1
  Nb  Nb38  1  0.49791200  0.75916800  0.91767300  1
  Nb  Nb39  1  0.00208800  0.25916800  0.58232700  1
  Nb  Nb40  1  0.00078700  0.74104000  0.75099300  1
  Nb  Nb41  1  0.49921300  0.24104000  0.74900700  1
  Nb  Nb42  1  0.50078700  0.25896000  0.24900700  1
  Nb  Nb43  1  0.99921300  0.75896000  0.25099300  1
  Nb  Nb44  1  0.99921300  0.25896000  0.24900700  1
  Nb  Nb45  1  0.50078700  0.75896000  0.25099300  1
  Nb  Nb46  1  0.49921300  0.74104000  0.75099300  1
  Nb  Nb47  1  0.00078700  0.24104000  0.74900700  1
  O  O48  1  0.25000000  0.77003000  0.59423500  1
  O  O49  1  0.25000000  0.27003000  0.90576500  1
  O  O50  1  0.75000000  0.22997000  0.40576500  1
  O  O51  1  0.75000000  0.72997000  0.09423500  1
  O  O52  1  0.25000000  0.72009900  0.40787500  1
  O  O53  1  0.25000000  0.22009900  0.09212500  1
  O  O54  1  0.75000000  0.27990100  0.59212500  1
  O  O55  1  0.75000000  0.77990100  0.90787500  1
  O  O56  1  0.25000000  0.74276400  0.26001400  1
  O  O57  1  0.25000000  0.24276400  0.23998600  1
  O  O58  1  0.75000000  0.25723600  0.73998600  1
  O  O59  1  0.75000000  0.75723600  0.76001400  1
  O  O60  1  0.25000000  0.78148800  0.07132500  1
  O  O61  1  0.25000000  0.28148800  0.42867500  1
  O  O62  1  0.75000000  0.21851200  0.92867500  1
  O  O63  1  0.75000000  0.71851200  0.57132500  1
  O  O64  1  0.25000000  0.70962300  0.92472600  1
  O  O65  1  0.25000000  0.20962300  0.57527400  1
  O  O66  1  0.75000000  0.29037700  0.07527400  1
  O  O67  1  0.75000000  0.79037700  0.42472600  1
  O  O68  1  0.25000000  0.74702400  0.73810000  1
  O  O69  1  0.25000000  0.24702400  0.76190000  1
  O  O70  1  0.75000000  0.25297600  0.26190000  1
  O  O71  1  0.75000000  0.75297600  0.23810000  1
  O  O72  1  0.96996600  0.71507500  0.99992300  1
  O  O73  1  0.53003400  0.21507500  0.50007700  1
  O  O74  1  0.46996600  0.28492500  0.00007700  1
  O  O75  1  0.03003400  0.78492500  0.49992300  1
  O  O76  1  0.03003400  0.28492500  0.00007700  1
  O  O77  1  0.46996600  0.78492500  0.49992300  1
  O  O78  1  0.53003400  0.71507500  0.99992300  1
  O  O79  1  0.96996600  0.21507500  0.50007700  1
  O  O80  1  0.03149400  0.78293100  0.83318300  1
  O  O81  1  0.46850600  0.28293100  0.66681700  1
  O  O82  1  0.53149400  0.21706900  0.16681700  1
  O  O83  1  0.96850600  0.71706900  0.33318300  1
  O  O84  1  0.96850600  0.21706900  0.16681700  1
  O  O85  1  0.53149400  0.71706900  0.33318300  1
  O  O86  1  0.46850600  0.78293100  0.83318300  1
  O  O87  1  0.03149400  0.28293100  0.66681700  1
  O  O88  1  0.96895700  0.71030400  0.66617400  1
  O  O89  1  0.53104300  0.21030400  0.83382600  1
  O  O90  1  0.46895700  0.28969600  0.33382600  1
  O  O91  1  0.03104300  0.78969600  0.16617400  1
  O  O92  1  0.03104300  0.28969600  0.33382600  1
  O  O93  1  0.46895700  0.78969600  0.16617400  1
  O  O94  1  0.53104300  0.71030400  0.66617400  1
  O  O95  1  0.96895700  0.21030400  0.83382600  1
  O  O96  1  0.96893600  0.00433600  0.07153300  1
  O  O97  1  0.53106400  0.50433600  0.42846700  1
  O  O98  1  0.46893600  0.99566400  0.92846700  1
  O  O99  1  0.03106400  0.49566400  0.57153300  1
  O  O100  1  0.03106400  0.99566400  0.92846700  1
  O  O101  1  0.46893600  0.49566400  0.57153300  1
  O  O102  1  0.53106400  0.00433600  0.07153300  1
  O  O103  1  0.96893600  0.50433600  0.42846700  1
  O  O104  1  0.99989400  0.00026700  0.73712600  1
  O  O105  1  0.50010600  0.50026700  0.76287400  1
  O  O106  1  0.49989400  0.99973300  0.26287400  1
  O  O107  1  0.00010600  0.49973300  0.23712600  1
  O  O108  1  0.00010600  0.99973300  0.26287400  1
  O  O109  1  0.49989400  0.49973300  0.23712600  1
  O  O110  1  0.50010600  0.00026700  0.73712600  1
  O  O111  1  0.99989400  0.50026700  0.76287400  1
  O  O112  1  0.96906800  0.99615500  0.59511900  1
  O  O113  1  0.53093200  0.49615500  0.90488100  1
  O  O114  1  0.46906800  0.00384500  0.40488100  1
  O  O115  1  0.03093200  0.50384500  0.09511900  1
  O  O116  1  0.03093200  0.00384500  0.40488100  1
  O  O117  1  0.46906800  0.50384500  0.09511900  1
  O  O118  1  0.53093200  0.99615500  0.59511900  1
  O  O119  1  0.96906800  0.49615500  0.90488100  1
