# generated using pymatgen
data_UAlPt
_symmetry_space_group_name_H-M   'P 1'
_cell_length_a   6.97254603
_cell_length_b   6.97254603
_cell_length_c   4.17334100
_cell_angle_alpha   90.00000000
_cell_angle_beta   90.00000000
_cell_angle_gamma   120.00000029
_symmetry_Int_Tables_number   1
_chemical_formula_structural   UAlPt
_chemical_formula_sum   'U3 Al3 Pt3'
_cell_volume   175.71032516
_cell_formula_units_Z   3
loop_
 _symmetry_equiv_pos_site_id
 _symmetry_equiv_pos_as_xyz
  1  'x, y, z'
loop_
 _atom_site_type_symbol
 _atom_site_label
 _atom_site_symmetry_multiplicity
 _atom_site_fract_x
 _atom_site_fract_y
 _atom_site_fract_z
 _atom_site_occupancy
  U  U0  1  0.42532300  0.42532300  0.50000000  1
  U  U1  1  0.57467700  0.00000000  0.50000000  1
  U  U2  1  0.00000000  0.57467700  0.50000000  1
  Al  Al3  1  0.76257100  0.76257100  0.00000000  1
  Al  Al4  1  0.23742900  0.00000000  0.00000000  1
  Al  Al5  1  0.00000000  0.23742900  0.00000000  1
  Pt  Pt6  1  0.66666700  0.33333300  0.00000000  1
  Pt  Pt7  1  0.33333300  0.66666700  0.00000000  1
  Pt  Pt8  1  0.00000000  0.00000000  0.50000000  1
