# generated using pymatgen
data_EuGaAg4
_symmetry_space_group_name_H-M   'P 1'
_cell_length_a   5.63302309
_cell_length_b   5.63302309
_cell_length_c   4.58532800
_cell_angle_alpha   90.00000000
_cell_angle_beta   90.00000000
_cell_angle_gamma   116.70357139
_symmetry_Int_Tables_number   1
_chemical_formula_structural   EuGaAg4
_chemical_formula_sum   'Eu1 Ga1 Ag4'
_cell_volume   129.97861148
_cell_formula_units_Z   1
loop_
 _symmetry_equiv_pos_site_id
 _symmetry_equiv_pos_as_xyz
  1  'x, y, z'
loop_
 _atom_site_type_symbol
 _atom_site_label
 _atom_site_symmetry_multiplicity
 _atom_site_fract_x
 _atom_site_fract_y
 _atom_site_fract_z
 _atom_site_occupancy
  Eu  Eu0  1  0.50000000  0.50000000  0.00000000  1
  Ga  Ga1  1  0.00000000  0.00000000  0.50000000  1
  Ag  Ag2  1  0.16085700  0.83914300  0.00000000  1
  Ag  Ag3  1  0.83914300  0.16085700  0.00000000  1
  Ag  Ag4  1  0.00000000  0.50000000  0.50000000  1
  Ag  Ag5  1  0.50000000  0.00000000  0.50000000  1
