# generated using pymatgen
data_Ho2Fe17
_symmetry_space_group_name_H-M   'P 1'
_cell_length_a   8.48199016
_cell_length_b   8.48199016
_cell_length_c   8.24186400
_cell_angle_alpha   90.00000000
_cell_angle_beta   90.00000000
_cell_angle_gamma   120.00000125
_symmetry_Int_Tables_number   1
_chemical_formula_structural   Ho2Fe17
_chemical_formula_sum   'Ho4 Fe34'
_cell_volume   513.51318466
_cell_formula_units_Z   2
loop_
 _symmetry_equiv_pos_site_id
 _symmetry_equiv_pos_as_xyz
  1  'x, y, z'
loop_
 _atom_site_type_symbol
 _atom_site_label
 _atom_site_symmetry_multiplicity
 _atom_site_fract_x
 _atom_site_fract_y
 _atom_site_fract_z
 _atom_site_occupancy
  Ho  Ho0  1  0.00000000  0.00000000  0.25000000  1
  Ho  Ho1  1  0.00000000  0.00000000  0.75000000  1
  Ho  Ho2  1  0.33333300  0.66666700  0.75000000  1
  Ho  Ho3  1  0.66666700  0.33333300  0.25000000  1
  Fe  Fe4  1  0.33333300  0.66666700  0.39363100  1
  Fe  Fe5  1  0.66666700  0.33333300  0.60636900  1
  Fe  Fe6  1  0.66666700  0.33333300  0.89363100  1
  Fe  Fe7  1  0.33333300  0.66666700  0.10636900  1
  Fe  Fe8  1  0.50000000  0.50000000  0.50000000  1
  Fe  Fe9  1  0.50000000  0.00000000  0.50000000  1
  Fe  Fe10  1  0.00000000  0.50000000  0.50000000  1
  Fe  Fe11  1  0.50000000  0.50000000  0.00000000  1
  Fe  Fe12  1  0.50000000  0.00000000  0.00000000  1
  Fe  Fe13  1  0.00000000  0.50000000  0.00000000  1
  Fe  Fe14  1  0.32893500  0.36790000  0.25000000  1
  Fe  Fe15  1  0.63210000  0.96103500  0.25000000  1
  Fe  Fe16  1  0.03896500  0.67106500  0.25000000  1
  Fe  Fe17  1  0.63210000  0.67106500  0.25000000  1
  Fe  Fe18  1  0.03896500  0.36790000  0.25000000  1
  Fe  Fe19  1  0.32893500  0.96103500  0.25000000  1
  Fe  Fe20  1  0.67106500  0.63210000  0.75000000  1
  Fe  Fe21  1  0.36790000  0.03896500  0.75000000  1
  Fe  Fe22  1  0.96103500  0.32893500  0.75000000  1
  Fe  Fe23  1  0.36790000  0.32893500  0.75000000  1
  Fe  Fe24  1  0.96103500  0.63210000  0.75000000  1
  Fe  Fe25  1  0.67106500  0.03896500  0.75000000  1
  Fe  Fe26  1  0.16602700  0.83397300  0.51568900  1
  Fe  Fe27  1  0.16602700  0.33205500  0.51568900  1
  Fe  Fe28  1  0.66794500  0.83397300  0.51568900  1
  Fe  Fe29  1  0.83397300  0.16602700  0.48431100  1
  Fe  Fe30  1  0.83397300  0.66794500  0.48431100  1
  Fe  Fe31  1  0.33205500  0.16602700  0.48431100  1
  Fe  Fe32  1  0.83397300  0.16602700  0.01568900  1
  Fe  Fe33  1  0.83397300  0.66794500  0.01568900  1
  Fe  Fe34  1  0.33205500  0.16602700  0.01568900  1
  Fe  Fe35  1  0.16602700  0.83397300  0.98431100  1
  Fe  Fe36  1  0.16602700  0.33205500  0.98431100  1
  Fe  Fe37  1  0.66794500  0.83397300  0.98431100  1
