# generated using pymatgen
data_Ti
_symmetry_space_group_name_H-M   'P 1'
_cell_length_a   12.21754221
_cell_length_b   11.62667855
_cell_length_c   12.31047085
_cell_angle_alpha   89.32063507
_cell_angle_beta   93.28746053
_cell_angle_gamma   87.76716178
_symmetry_Int_Tables_number   1
_chemical_formula_structural   Ti
_chemical_formula_sum   Ti100
_cell_volume   1744.31822397
_cell_formula_units_Z   100
loop_
 _symmetry_equiv_pos_site_id
 _symmetry_equiv_pos_as_xyz
  1  'x, y, z'
loop_
 _atom_site_type_symbol
 _atom_site_label
 _atom_site_symmetry_multiplicity
 _atom_site_fract_x
 _atom_site_fract_y
 _atom_site_fract_z
 _atom_site_occupancy
  Ti  Ti0  1  0.17644600  0.10919617  0.73590066  1
  Ti  Ti1  1  0.68578121  0.73008822  0.97250852  1
  Ti  Ti2  1  0.29546176  0.64398096  0.20188634  1
  Ti  Ti3  1  0.49488966  0.46744437  0.24030835  1
  Ti  Ti4  1  0.45419227  0.17400402  0.71458869  1
  Ti  Ti5  1  0.51801901  0.69749245  0.18398006  1
  Ti  Ti6  1  0.39881713  0.43336530  0.80322940  1
  Ti  Ti7  1  0.17243599  0.52897877  0.78896902  1
  Ti  Ti8  1  0.97668746  0.70289192  0.84124490  1
  Ti  Ti9  1  0.68758875  0.83264321  0.23179474  1
  Ti  Ti10  1  0.16851058  0.23575022  0.31594960  1
  Ti  Ti11  1  0.89795299  0.77456227  0.63182530  1
  Ti  Ti12  1  0.04282348  0.80582253  0.45493298  1
  Ti  Ti13  1  0.43495418  0.34515012  0.56879865  1
  Ti  Ti14  1  0.35863383  0.77565435  0.57510245  1
  Ti  Ti15  1  0.40762873  0.27127780  0.32805075  1
  Ti  Ti16  1  0.90841794  0.99787492  0.40561382  1
  Ti  Ti17  1  0.31893720  0.21407523  0.88210736  1
  Ti  Ti18  1  0.34573453  0.67901715  0.78910770  1
  Ti  Ti19  1  0.76513070  0.19849713  0.46210259  1
  Ti  Ti20  1  0.78978955  0.11229633  0.16924541  1
  Ti  Ti21  1  0.76352909  0.62070866  0.17415009  1
  Ti  Ti22  1  0.36650611  0.94317097  0.77942482  1
  Ti  Ti23  1  0.11297470  0.80847082  0.23287667  1
  Ti  Ti24  1  0.03086273  0.07228087  0.17068516  1
  Ti  Ti25  1  0.54984476  0.16386296  0.47897363  1
  Ti  Ti26  1  0.67671790  0.02662088  0.34283036  1
  Ti  Ti27  1  0.72951030  0.92411413  0.53774552  1
  Ti  Ti28  1  0.61088158  0.51149611  0.06694816  1
  Ti  Ti29  1  0.00480375  0.59264400  0.51936230  1
  Ti  Ti30  1  0.17412893  0.65354020  0.97808618  1
  Ti  Ti31  1  0.11420032  0.94582001  0.62544802  1
  Ti  Ti32  1  0.79170380  0.52026254  0.96762033  1
  Ti  Ti33  1  0.08598894  0.29896250  0.10875359  1
  Ti  Ti34  1  0.40053978  0.57778123  0.00291424  1
  Ti  Ti35  1  0.28262241  0.43128240  0.41405063  1
  Ti  Ti36  1  0.25380622  0.55728020  0.59005822  1
  Ti  Ti37  1  0.79345495  0.75437835  0.42081683  1
  Ti  Ti38  1  0.47812815  0.56830077  0.62363370  1
  Ti  Ti39  1  0.52409631  0.14234283  0.98495962  1
  Ti  Ti40  1  0.87146020  0.40625856  0.16232224  1
  Ti  Ti41  1  0.30712870  0.82617646  0.34971317  1
  Ti  Ti42  1  0.65452874  0.96186283  0.05088694  1
  Ti  Ti43  1  0.89901359  0.73121849  0.04146875  1
  Ti  Ti44  1  0.58916811  0.31804769  0.86352305  1
  Ti  Ti45  1  0.48052580  0.81061761  0.96094644  1
  Ti  Ti46  1  0.04278940  0.15943614  0.53288258  1
  Ti  Ti47  1  0.29215410  0.81857802  0.06407702  1
  Ti  Ti48  1  0.68476927  0.17341825  0.67064773  1
  Ti  Ti49  1  0.65084152  0.59540219  0.35596261  1
  Ti  Ti50  1  0.77322080  0.61977673  0.76664692  1
  Ti  Ti51  1  0.94361054  0.14992298  0.77918496  1
  Ti  Ti52  1  0.24926612  0.32328971  0.68291932  1
  Ti  Ti53  1  0.98961378  0.92740266  0.80967916  1
  Ti  Ti54  1  0.53329992  0.13925613  0.19768076  1
  Ti  Ti55  1  0.74604206  0.12526223  0.88602725  1
  Ti  Ti56  1  0.60373739  0.40308959  0.45517334  1
  Ti  Ti57  1  0.17288218  0.63413182  0.37945841  1
  Ti  Ti58  1  0.81705005  0.34891644  0.81832257  1
  Ti  Ti59  1  0.54828046  0.97898636  0.61867394  1
  Ti  Ti60  1  0.32998854  0.01230807  0.58252393  1
  Ti  Ti61  1  0.53952813  0.78573848  0.74369161  1
  Ti  Ti62  1  0.78594616  0.53754136  0.55149442  1
  Ti  Ti63  1  0.76258133  0.88253118  0.78494101  1
  Ti  Ti64  1  0.19216942  0.85911316  0.84890834  1
  Ti  Ti65  1  0.92271304  0.23073893  0.99294668  1
  Ti  Ti66  1  0.08533889  0.37696446  0.52140889  1
  Ti  Ti67  1  0.07468476  0.87327780  0.02813520  1
  Ti  Ti68  1  0.46269432  0.91856589  0.18976994  1
  Ti  Ti69  1  0.30159777  0.20463387  0.11165966  1
  Ti  Ti70  1  0.57520036  0.56962699  0.84506103  1
  Ti  Ti71  1  0.35077438  0.01047427  0.99531770  1
  Ti  Ti72  1  0.87037933  0.31256473  0.60815746  1
  Ti  Ti73  1  0.87466365  0.03895563  0.62355728  1
  Ti  Ti74  1  0.23381947  0.41062659  0.97202524  1
  Ti  Ti75  1  0.64064559  0.40504290  0.67357386  1
  Ti  Ti76  1  0.43019927  0.61173756  0.39982335  1
  Ti  Ti77  1  0.00705047  0.48017100  0.93920731  1
  Ti  Ti78  1  0.87464985  0.97161581  0.99918926  1
  Ti  Ti79  1  0.53530891  0.83276215  0.42199558  1
  Ti  Ti80  1  0.12762210  0.72894672  0.66600834  1
  Ti  Ti81  1  0.89915700  0.88823046  0.21155354  1
  Ti  Ti82  1  0.57296141  0.99751156  0.83645175  1
  Ti  Ti83  1  0.14422249  0.00629095  0.38771287  1
  Ti  Ti84  1  0.84352497  0.43454022  0.38685227  1
  Ti  Ti85  1  0.07171045  0.30530503  0.82641193  1
  Ti  Ti86  1  0.45900419  0.34489015  0.05331147  1
  Ti  Ti87  1  0.05388395  0.57915632  0.13912640  1
  Ti  Ti88  1  0.93728142  0.65181411  0.30942254  1
  Ti  Ti89  1  0.93199819  0.22735631  0.31847617  1
  Ti  Ti90  1  0.69711452  0.28909369  0.04713140  1
  Ti  Ti91  1  0.65113741  0.70397614  0.57790586  1
  Ti  Ti92  1  0.68062683  0.30861534  0.27071059  1
  Ti  Ti93  1  0.12610179  0.09398609  0.96036436  1
  Ti  Ti94  1  0.25397870  0.42074461  0.19155449  1
  Ti  Ti95  1  0.05645621  0.43892306  0.30346011  1
  Ti  Ti96  1  0.27127097  0.20385019  0.49800688  1
  Ti  Ti97  1  0.39731917  0.03699189  0.37825619  1
  Ti  Ti98  1  0.24685242  0.01261234  0.20436074  1
  Ti  Ti99  1  0.96637176  0.49740525  0.71434984  1
