# generated using pymatgen
data_Dy3Al2
_symmetry_space_group_name_H-M   'P 1'
_cell_length_a   8.23744200
_cell_length_b   8.23744200
_cell_length_c   7.61133300
_cell_angle_alpha   90.00000000
_cell_angle_beta   90.00000000
_cell_angle_gamma   90.00000000
_symmetry_Int_Tables_number   1
_chemical_formula_structural   Dy3Al2
_chemical_formula_sum   'Dy12 Al8'
_cell_volume   516.47043117
_cell_formula_units_Z   4
loop_
 _symmetry_equiv_pos_site_id
 _symmetry_equiv_pos_as_xyz
  1  'x, y, z'
loop_
 _atom_site_type_symbol
 _atom_site_label
 _atom_site_symmetry_multiplicity
 _atom_site_fract_x
 _atom_site_fract_y
 _atom_site_fract_z
 _atom_site_occupancy
  Dy  Dy0  1  0.50000000  0.00000000  0.25000000  1
  Dy  Dy1  1  0.00000000  0.50000000  0.75000000  1
  Dy  Dy2  1  0.50000000  0.00000000  0.75000000  1
  Dy  Dy3  1  0.00000000  0.50000000  0.25000000  1
  Dy  Dy4  1  0.84886300  0.15113700  0.50000000  1
  Dy  Dy5  1  0.15113700  0.84886300  0.50000000  1
  Dy  Dy6  1  0.34886300  0.34886300  0.00000000  1
  Dy  Dy7  1  0.65113700  0.65113700  0.00000000  1
  Dy  Dy8  1  0.70011500  0.70011500  0.50000000  1
  Dy  Dy9  1  0.29988500  0.29988500  0.50000000  1
  Dy  Dy10  1  0.20011500  0.79988500  0.00000000  1
  Dy  Dy11  1  0.79988500  0.20011500  0.00000000  1
  Al  Al12  1  0.61927500  0.38072500  0.30244500  1
  Al  Al13  1  0.38072500  0.61927500  0.30244500  1
  Al  Al14  1  0.11927500  0.11927500  0.80244500  1
  Al  Al15  1  0.88072500  0.88072500  0.80244500  1
  Al  Al16  1  0.38072500  0.61927500  0.69755500  1
  Al  Al17  1  0.61927500  0.38072500  0.69755500  1
  Al  Al18  1  0.88072500  0.88072500  0.19755500  1
  Al  Al19  1  0.11927500  0.11927500  0.19755500  1
