# generated using pymatgen
data_FeHO2
_symmetry_space_group_name_H-M   'P 1'
_cell_length_a   3.71025700
_cell_length_b   5.39439000
_cell_length_c   8.05914400
_cell_angle_alpha   90.00000000
_cell_angle_beta   90.00000000
_cell_angle_gamma   90.00000000
_symmetry_Int_Tables_number   1
_chemical_formula_structural   FeHO2
_chemical_formula_sum   'Fe4 H4 O8'
_cell_volume   161.30032799
_cell_formula_units_Z   4
loop_
 _symmetry_equiv_pos_site_id
 _symmetry_equiv_pos_as_xyz
  1  'x, y, z'
loop_
 _atom_site_type_symbol
 _atom_site_label
 _atom_site_symmetry_multiplicity
 _atom_site_fract_x
 _atom_site_fract_y
 _atom_site_fract_z
 _atom_site_occupancy
  Fe  Fe0  1  0.25000000  0.71130400  0.75832400  1
  Fe  Fe1  1  0.25000000  0.78869600  0.25832400  1
  Fe  Fe2  1  0.75000000  0.28869600  0.24167600  1
  Fe  Fe3  1  0.75000000  0.21130400  0.74167600  1
  H  H4  1  0.25000000  0.50868200  0.49596400  1
  H  H5  1  0.25000000  0.99131800  0.99596400  1
  H  H6  1  0.75000000  0.49131800  0.50403600  1
  H  H7  1  0.75000000  0.00868200  0.00403600  1
  O  O8  1  0.25000000  0.14580000  0.26218800  1
  O  O9  1  0.25000000  0.35420000  0.76218800  1
  O  O10  1  0.75000000  0.85420000  0.73781200  1
  O  O11  1  0.75000000  0.64580000  0.23781200  1
  O  O12  1  0.25000000  0.69221200  0.49950700  1
  O  O13  1  0.25000000  0.80778800  0.99950700  1
  O  O14  1  0.75000000  0.30778800  0.50049300  1
  O  O15  1  0.75000000  0.19221200  0.00049300  1
