# generated using pymatgen
data_KSr2Nb5O15
_symmetry_space_group_name_H-M   'P 1'
_cell_length_a   12.67923289
_cell_length_b   12.67923289
_cell_length_c   4.05802500
_cell_angle_alpha   90.00000000
_cell_angle_beta   90.00000000
_cell_angle_gamma   90.16289119
_symmetry_Int_Tables_number   1
_chemical_formula_structural   KSr2Nb5O15
_chemical_formula_sum   'K2 Sr4 Nb10 O30'
_cell_volume   652.37742044
_cell_formula_units_Z   2
loop_
 _symmetry_equiv_pos_site_id
 _symmetry_equiv_pos_as_xyz
  1  'x, y, z'
loop_
 _atom_site_type_symbol
 _atom_site_label
 _atom_site_symmetry_multiplicity
 _atom_site_fract_x
 _atom_site_fract_y
 _atom_site_fract_z
 _atom_site_occupancy
  K  K0  1  0.17172600  0.82827400  0.98444400  1
  K  K1  1  0.82827400  0.17172600  0.98444400  1
  Sr  Sr2  1  0.50000000  0.00000000  0.98262200  1
  Sr  Sr3  1  0.00000000  0.50000000  0.98262200  1
  Sr  Sr4  1  0.32662300  0.32662300  0.96700100  1
  Sr  Sr5  1  0.67337700  0.67337700  0.96700100  1
  Nb  Nb6  1  0.71222300  0.92348000  0.46963900  1
  Nb  Nb7  1  0.28777700  0.07652000  0.46963900  1
  Nb  Nb8  1  0.78893700  0.42377000  0.46831500  1
  Nb  Nb9  1  0.21106300  0.57623000  0.46831500  1
  Nb  Nb10  1  0.57623000  0.21106300  0.46831500  1
  Nb  Nb11  1  0.42377000  0.78893700  0.46831500  1
  Nb  Nb12  1  0.07652000  0.28777700  0.46963900  1
  Nb  Nb13  1  0.92348000  0.71222300  0.46963900  1
  Nb  Nb14  1  0.00000000  0.00000000  0.44904400  1
  Nb  Nb15  1  0.50000000  0.50000000  0.45959300  1
  O  O16  1  0.28714200  0.71285800  0.50530000  1
  O  O17  1  0.71285800  0.28714200  0.50530000  1
  O  O18  1  0.22795400  0.22795400  0.50192500  1
  O  O19  1  0.77204600  0.77204600  0.50192500  1
  O  O20  1  0.50921200  0.65754400  0.51511600  1
  O  O21  1  0.49078800  0.34245600  0.51511600  1
  O  O22  1  0.00081500  0.15710800  0.50680200  1
  O  O23  1  0.99918500  0.84289200  0.50680200  1
  O  O24  1  0.84289200  0.99918500  0.50680200  1
  O  O25  1  0.15710800  0.00081500  0.50680200  1
  O  O26  1  0.34245600  0.49078800  0.51511600  1
  O  O27  1  0.65754400  0.50921200  0.51511600  1
  O  O28  1  0.69976500  0.91364900  0.00460400  1
  O  O29  1  0.30023500  0.08635100  0.00460400  1
  O  O30  1  0.79950100  0.42400500  0.00553200  1
  O  O31  1  0.20049900  0.57599500  0.00553200  1
  O  O32  1  0.57599500  0.20049900  0.00553200  1
  O  O33  1  0.42400500  0.79950100  0.00553200  1
  O  O34  1  0.08635100  0.30023500  0.00460400  1
  O  O35  1  0.91364900  0.69976500  0.00460400  1
  O  O36  1  0.56368300  0.86252700  0.51149300  1
  O  O37  1  0.43631700  0.13747300  0.51149300  1
  O  O38  1  0.93710800  0.36341800  0.50704000  1
  O  O39  1  0.06289200  0.63658200  0.50704000  1
  O  O40  1  0.63658200  0.06289200  0.50704000  1
  O  O41  1  0.36341800  0.93710800  0.50704000  1
  O  O42  1  0.13747300  0.43631700  0.51149300  1
  O  O43  1  0.86252700  0.56368300  0.51149300  1
  O  O44  1  0.00000000  0.00000000  0.99797900  1
  O  O45  1  0.50000000  0.50000000  0.00322000  1
