# generated using pymatgen
data_BaYCo4O7
_symmetry_space_group_name_H-M   'P 1'
_cell_length_a   6.37869067
_cell_length_b   6.37869067
_cell_length_c   10.44941100
_cell_angle_alpha   89.85174926
_cell_angle_beta   89.85174926
_cell_angle_gamma   119.78276155
_symmetry_Int_Tables_number   1
_chemical_formula_structural   BaYCo4O7
_chemical_formula_sum   'Ba2 Y2 Co8 O14'
_cell_volume   368.99992803
_cell_formula_units_Z   2
loop_
 _symmetry_equiv_pos_site_id
 _symmetry_equiv_pos_as_xyz
  1  'x, y, z'
loop_
 _atom_site_type_symbol
 _atom_site_label
 _atom_site_symmetry_multiplicity
 _atom_site_fract_x
 _atom_site_fract_y
 _atom_site_fract_z
 _atom_site_occupancy
  Ba  Ba0  1  0.33338400  0.66216100  0.01605000  1
  Ba  Ba1  1  0.66216100  0.33338400  0.51605000  1
  Y  Y2  1  0.33483300  0.66549600  0.62401600  1
  Y  Y3  1  0.66549600  0.33483300  0.12401600  1
  Co  Co4  1  0.00607400  0.99481900  0.05915400  1
  Co  Co5  1  0.99481900  0.00607400  0.55915400  1
  Co  Co6  1  0.83622100  0.66085100  0.81450900  1
  Co  Co7  1  0.33873000  0.18326300  0.81444400  1
  Co  Co8  1  0.81929400  0.16094700  0.81413300  1
  Co  Co9  1  0.66085100  0.83622100  0.31450900  1
  Co  Co10  1  0.18326300  0.33873000  0.31444400  1
  Co  Co11  1  0.16094700  0.81929400  0.31413300  1
  O  O12  1  0.50352800  0.01425200  0.74428100  1
  O  O13  1  0.97962000  0.47080700  0.74008400  1
  O  O14  1  0.51376400  0.50924800  0.74210000  1
  O  O15  1  0.01425200  0.50352800  0.24428100  1
  O  O16  1  0.47080700  0.97962000  0.24008400  1
  O  O17  1  0.50924800  0.51376400  0.24210000  1
  O  O18  1  0.00407000  0.99686400  0.25368500  1
  O  O19  1  0.99686400  0.00407000  0.75368500  1
  O  O20  1  0.88200100  0.66450700  0.99877700  1
  O  O21  1  0.33486400  0.21261600  0.99980700  1
  O  O22  1  0.79612800  0.12146000  0.99236000  1
  O  O23  1  0.66450700  0.88200100  0.49877700  1
  O  O24  1  0.21261600  0.33486400  0.49980700  1
  O  O25  1  0.12146000  0.79612800  0.49236000  1
