# generated using pymatgen
data_RbCr4O8
_symmetry_space_group_name_H-M   'P 1'
_cell_length_a   3.02097352
_cell_length_b   7.23149909
_cell_length_c   7.25085886
_cell_angle_alpha   87.22054172
_cell_angle_beta   78.03435918
_cell_angle_gamma   77.44969107
_symmetry_Int_Tables_number   1
_chemical_formula_structural   RbCr4O8
_chemical_formula_sum   'Rb1 Cr4 O8'
_cell_volume   151.25800056
_cell_formula_units_Z   1
loop_
 _symmetry_equiv_pos_site_id
 _symmetry_equiv_pos_as_xyz
  1  'x, y, z'
loop_
 _atom_site_type_symbol
 _atom_site_label
 _atom_site_symmetry_multiplicity
 _atom_site_fract_x
 _atom_site_fract_y
 _atom_site_fract_z
 _atom_site_occupancy
  Rb  Rb0  1  0.49878200  0.00142500  0.00112500  1
  Cr  Cr1  1  0.14689100  0.18371400  0.49079000  1
  Cr  Cr2  1  0.65963500  0.51070800  0.18399400  1
  Cr  Cr3  1  0.83735800  0.81438100  0.50985200  1
  Cr  Cr4  1  0.34866900  0.49175500  0.81775600  1
  O  O5  1  0.46320500  0.69984400  0.37348600  1
  O  O6  1  0.54839300  0.29561800  0.62305200  1
  O  O7  1  0.83882400  0.62502800  0.69893400  1
  O  O8  1  0.16650300  0.37293500  0.29617400  1
  O  O9  1  0.84666300  0.36359600  0.95313300  1
  O  O10  1  0.20423500  0.94973600  0.63799900  1
  O  O11  1  0.15586900  0.64252400  0.05181900  1
  O  O12  1  0.78497500  0.04873600  0.36188300  1
