# generated using pymatgen
data_YFe2
_symmetry_space_group_name_H-M   'P 1'
_cell_length_a   8.90838417
_cell_length_b   8.90838417
_cell_length_c   8.90838417
_cell_angle_alpha   99.68268341
_cell_angle_beta   99.68268341
_cell_angle_gamma   131.57631863
_symmetry_Int_Tables_number   1
_chemical_formula_structural   YFe2
_chemical_formula_sum   'Y10 Fe20'
_cell_volume   482.33875151
_cell_formula_units_Z   10
loop_
 _symmetry_equiv_pos_site_id
 _symmetry_equiv_pos_as_xyz
  1  'x, y, z'
loop_
 _atom_site_type_symbol
 _atom_site_label
 _atom_site_symmetry_multiplicity
 _atom_site_fract_x
 _atom_site_fract_y
 _atom_site_fract_z
 _atom_site_occupancy
  Y  Y0  1  0.00000000  0.00000000  0.00000000  1
  Y  Y1  1  0.25000000  0.75000000  0.50000000  1
  Y  Y2  1  0.04671900  0.14718500  0.69901200  1
  Y  Y3  1  0.44817300  0.34770800  0.30098800  1
  Y  Y4  1  0.65229200  0.95328100  0.10046600  1
  Y  Y5  1  0.85281500  0.55182700  0.89953400  1
  Y  Y6  1  0.20454400  0.60174400  0.80088700  1
  Y  Y7  1  0.80085700  0.40365700  0.19911300  1
  Y  Y8  1  0.59634300  0.79545600  0.39720000  1
  Y  Y9  1  0.39825600  0.19914300  0.60280000  1
  Fe  Fe10  1  0.72255500  0.67534200  0.14982000  1
  Fe  Fe11  1  0.52552200  0.57273600  0.85018000  1
  Fe  Fe12  1  0.42726400  0.27744500  0.95278600  1
  Fe  Fe13  1  0.32465800  0.47447800  0.04721400  1
  Fe  Fe14  1  0.72361200  0.17348600  0.64790300  1
  Fe  Fe15  1  0.52558300  0.07570900  0.35209700  1
  Fe  Fe16  1  0.92429100  0.27638800  0.44987400  1
  Fe  Fe17  1  0.82651400  0.47441700  0.55012600  1
  Fe  Fe18  1  0.92331900  0.77292000  0.45242000  1
  Fe  Fe19  1  0.32050100  0.47089900  0.54758000  1
  Fe  Fe20  1  0.52910100  0.07668100  0.84960200  1
  Fe  Fe21  1  0.22708000  0.67949900  0.15039800  1
  Fe  Fe22  1  0.92336100  0.27348500  0.94554100  1
  Fe  Fe23  1  0.32794400  0.97782000  0.05445900  1
  Fe  Fe24  1  0.02218000  0.07663900  0.35012500  1
  Fe  Fe25  1  0.72651500  0.67205600  0.64987500  1
  Fe  Fe26  1  0.12370600  0.37704900  0.24554500  1
  Fe  Fe27  1  0.13150400  0.87816100  0.75445500  1
  Fe  Fe28  1  0.12183900  0.87629400  0.25334300  1
  Fe  Fe29  1  0.62295100  0.86849600  0.74665700  1
