# generated using pymatgen
data_Tb3Al2
_symmetry_space_group_name_H-M   'P 1'
_cell_length_a   8.28120800
_cell_length_b   8.28120800
_cell_length_c   7.60762000
_cell_angle_alpha   90.00000000
_cell_angle_beta   90.00000000
_cell_angle_gamma   90.00000000
_symmetry_Int_Tables_number   1
_chemical_formula_structural   Tb3Al2
_chemical_formula_sum   'Tb12 Al8'
_cell_volume   521.71845259
_cell_formula_units_Z   4
loop_
 _symmetry_equiv_pos_site_id
 _symmetry_equiv_pos_as_xyz
  1  'x, y, z'
loop_
 _atom_site_type_symbol
 _atom_site_label
 _atom_site_symmetry_multiplicity
 _atom_site_fract_x
 _atom_site_fract_y
 _atom_site_fract_z
 _atom_site_occupancy
  Tb  Tb0  1  0.70203200  0.70203200  0.00000000  1
  Tb  Tb1  1  0.29796800  0.29796800  0.00000000  1
  Tb  Tb2  1  0.79796800  0.20203200  0.50000000  1
  Tb  Tb3  1  0.20203200  0.79796800  0.50000000  1
  Tb  Tb4  1  0.00000000  0.50000000  0.25000000  1
  Tb  Tb5  1  0.50000000  0.00000000  0.25000000  1
  Tb  Tb6  1  0.50000000  0.00000000  0.75000000  1
  Tb  Tb7  1  0.00000000  0.50000000  0.75000000  1
  Tb  Tb8  1  0.64989500  0.64989500  0.50000000  1
  Tb  Tb9  1  0.35010500  0.35010500  0.50000000  1
  Tb  Tb10  1  0.85010500  0.14989500  0.00000000  1
  Tb  Tb11  1  0.14989500  0.85010500  0.00000000  1
  Al  Al12  1  0.88114800  0.88114800  0.30638600  1
  Al  Al13  1  0.11885200  0.11885200  0.30638600  1
  Al  Al14  1  0.61885200  0.38114800  0.19361400  1
  Al  Al15  1  0.38114800  0.61885200  0.19361400  1
  Al  Al16  1  0.11885200  0.11885200  0.69361400  1
  Al  Al17  1  0.88114800  0.88114800  0.69361400  1
  Al  Al18  1  0.61885200  0.38114800  0.80638600  1
  Al  Al19  1  0.38114800  0.61885200  0.80638600  1
