# generated using pymatgen
data_MnBiO3
_symmetry_space_group_name_H-M   'P 1'
_cell_length_a   5.67085500
_cell_length_b   11.40494800
_cell_length_c   15.84574400
_cell_angle_alpha   90.00000000
_cell_angle_beta   90.00000000
_cell_angle_gamma   90.00000000
_symmetry_Int_Tables_number   1
_chemical_formula_structural   MnBiO3
_chemical_formula_sum   'Mn16 Bi16 O48'
_cell_volume   1024.83627106
_cell_formula_units_Z   16
loop_
 _symmetry_equiv_pos_site_id
 _symmetry_equiv_pos_as_xyz
  1  'x, y, z'
loop_
 _atom_site_type_symbol
 _atom_site_label
 _atom_site_symmetry_multiplicity
 _atom_site_fract_x
 _atom_site_fract_y
 _atom_site_fract_z
 _atom_site_occupancy
  Mn  Mn0  1  0.50256700  0.12983700  0.62449100  1
  Mn  Mn1  1  0.50256700  0.12983700  0.37550900  1
  Mn  Mn2  1  0.49743300  0.62983700  0.87550900  1
  Mn  Mn3  1  0.49743300  0.62983700  0.12449100  1
  Mn  Mn4  1  0.99032100  0.38191000  0.37562200  1
  Mn  Mn5  1  0.99032100  0.38191000  0.62437800  1
  Mn  Mn6  1  0.00967900  0.88191000  0.12437800  1
  Mn  Mn7  1  0.00967900  0.88191000  0.87562200  1
  Mn  Mn8  1  0.99828800  0.38158100  0.12508500  1
  Mn  Mn9  1  0.99828800  0.38158100  0.87491500  1
  Mn  Mn10  1  0.00171200  0.88158100  0.37491500  1
  Mn  Mn11  1  0.00171200  0.88158100  0.62508500  1
  Mn  Mn12  1  0.49543300  0.63135800  0.37453800  1
  Mn  Mn13  1  0.49543300  0.63135800  0.62546200  1
  Mn  Mn14  1  0.50456700  0.13135800  0.12546200  1
  Mn  Mn15  1  0.50456700  0.13135800  0.87453800  1
  Bi  Bi16  1  0.94207300  0.63487700  0.50000000  1
  Bi  Bi17  1  0.05792700  0.13487700  0.00000000  1
  Bi  Bi18  1  0.53930800  0.37019000  0.50000000  1
  Bi  Bi19  1  0.46069200  0.87019000  0.00000000  1
  Bi  Bi20  1  0.44321200  0.87993900  0.50000000  1
  Bi  Bi21  1  0.55678800  0.37993900  0.00000000  1
  Bi  Bi22  1  0.03711000  0.14601700  0.50000000  1
  Bi  Bi23  1  0.96289000  0.64601700  0.00000000  1
  Bi  Bi24  1  0.04000800  0.62237000  0.25181100  1
  Bi  Bi25  1  0.04000800  0.62237000  0.74818900  1
  Bi  Bi26  1  0.95999200  0.12237000  0.24818900  1
  Bi  Bi27  1  0.95999200  0.12237000  0.75181100  1
  Bi  Bi28  1  0.55176200  0.38406200  0.24612000  1
  Bi  Bi29  1  0.55176200  0.38406200  0.75388000  1
  Bi  Bi30  1  0.44823800  0.88406200  0.25388000  1
  Bi  Bi31  1  0.44823800  0.88406200  0.74612000  1
  O  O32  1  0.27949500  0.00773700  0.65447400  1
  O  O33  1  0.27949500  0.00773700  0.34552600  1
  O  O34  1  0.72050500  0.50773700  0.84552600  1
  O  O35  1  0.72050500  0.50773700  0.15447400  1
  O  O36  1  0.56237400  0.17007700  0.74789300  1
  O  O37  1  0.56237400  0.17007700  0.25210700  1
  O  O38  1  0.43762600  0.67007700  0.75210700  1
  O  O39  1  0.43762600  0.67007700  0.24789300  1
  O  O40  1  0.27555900  0.77437700  0.39585800  1
  O  O41  1  0.27555900  0.77437700  0.60414200  1
  O  O42  1  0.72444100  0.27437700  0.10414200  1
  O  O43  1  0.72444100  0.27437700  0.89585800  1
  O  O44  1  0.71796300  0.49006300  0.35107800  1
  O  O45  1  0.71796300  0.49006300  0.64892200  1
  O  O46  1  0.28203700  0.99006300  0.14892200  1
  O  O47  1  0.28203700  0.99006300  0.85107800  1
  O  O48  1  0.21516400  0.52792200  0.35995100  1
  O  O49  1  0.21516400  0.52792200  0.64004900  1
  O  O50  1  0.78483600  0.02792200  0.14004900  1
  O  O51  1  0.78483600  0.02792200  0.85995100  1
  O  O52  1  0.22448300  0.25647200  0.40020800  1
  O  O53  1  0.22448300  0.25647200  0.59979200  1
  O  O54  1  0.77551700  0.75647200  0.09979200  1
  O  O55  1  0.77551700  0.75647200  0.90020800  1
  O  O56  1  0.72375000  0.25206000  0.40670200  1
  O  O57  1  0.72375000  0.25206000  0.59329800  1
  O  O58  1  0.27625000  0.75206000  0.09329800  1
  O  O59  1  0.27625000  0.75206000  0.90670200  1
  O  O60  1  0.94853000  0.34031100  0.25141600  1
  O  O61  1  0.94853000  0.34031100  0.74858400  1
  O  O62  1  0.05147000  0.84031100  0.24858400  1
  O  O63  1  0.05147000  0.84031100  0.75141600  1
  O  O64  1  0.22559700  0.23627400  0.11000200  1
  O  O65  1  0.22559700  0.23627400  0.88999800  1
  O  O66  1  0.77440300  0.73627400  0.38999800  1
  O  O67  1  0.77440300  0.73627400  0.61000200  1
  O  O68  1  0.21804100  0.51071600  0.14810000  1
  O  O69  1  0.21804100  0.51071600  0.85190000  1
  O  O70  1  0.78195900  0.01071600  0.35190000  1
  O  O71  1  0.78195900  0.01071600  0.64810000  1
  O  O72  1  0.95129500  0.42174000  0.00000000  1
  O  O73  1  0.04870500  0.92174000  0.50000000  1
  O  O74  1  0.44122800  0.08822700  0.50000000  1
  O  O75  1  0.55877200  0.58822700  0.00000000  1
  O  O76  1  0.54809100  0.59420200  0.50000000  1
  O  O77  1  0.45190900  0.09420200  0.00000000  1
  O  O78  1  0.93945000  0.42395100  0.50000000  1
  O  O79  1  0.06055000  0.92395100  0.00000000  1
