# generated using pymatgen
data_Sr2FeReO6
_symmetry_space_group_name_H-M   'P 1'
_cell_length_a   5.60630118
_cell_length_b   5.64098876
_cell_length_c   18.64243933
_cell_angle_alpha   98.19934228
_cell_angle_beta   89.96161219
_cell_angle_gamma   119.79081181
_symmetry_Int_Tables_number   1
_chemical_formula_structural   Sr2FeReO6
_chemical_formula_sum   'Sr8 Fe4 Re4 O24'
_cell_volume   504.73067011
_cell_formula_units_Z   4
loop_
 _symmetry_equiv_pos_site_id
 _symmetry_equiv_pos_as_xyz
  1  'x, y, z'
loop_
 _atom_site_type_symbol
 _atom_site_label
 _atom_site_symmetry_multiplicity
 _atom_site_fract_x
 _atom_site_fract_y
 _atom_site_fract_z
 _atom_site_occupancy
  Sr  Sr0  1  0.68759600  0.37585300  0.06270700  1
  Sr  Sr1  1  0.18694100  0.37432100  0.56139600  1
  Sr  Sr2  1  0.93724900  0.87481600  0.81222500  1
  Sr  Sr3  1  0.43798900  0.87517800  0.31377300  1
  Sr  Sr4  1  0.31311700  0.62571900  0.93869700  1
  Sr  Sr5  1  0.81239400  0.62413500  0.43717900  1
  Sr  Sr6  1  0.56275100  0.12526100  0.68796600  1
  Sr  Sr7  1  0.06194200  0.12478100  0.18609000  1
  Fe  Fe8  1  0.87473400  0.74936500  0.62445400  1
  Fe  Fe9  1  0.62526100  0.25046100  0.87561900  1
  Fe  Fe10  1  0.37465600  0.75200700  0.12783800  1
  Fe  Fe11  1  0.12542200  0.24799200  0.37210100  1
  Re  Re12  1  0.99984800  0.99963700  0.99917000  1
  Re  Re13  1  0.50022700  0.00041700  0.50086300  1
  Re  Re14  1  0.25000000  0.50000000  0.75002100  1
  Re  Re15  1  0.74996500  0.49995700  0.24995000  1
  O  O16  1  0.81684900  0.63194600  0.93851500  1
  O  O17  1  0.31535000  0.63178100  0.43892700  1
  O  O18  1  0.06658200  0.13257700  0.68895500  1
  O  O19  1  0.56651600  0.13185000  0.18833500  1
  O  O20  1  0.18449600  0.36796300  0.06102200  1
  O  O21  1  0.68333200  0.36837500  0.56155300  1
  O  O22  1  0.43346300  0.86753400  0.81108200  1
  O  O23  1  0.93338400  0.86799700  0.31159400  1
  O  O24  1  0.28021300  0.13992500  0.92971400  1
  O  O25  1  0.78108400  0.14013800  0.43036400  1
  O  O26  1  0.52892200  0.64039900  0.67982500  1
  O  O27  1  0.03057800  0.64155300  0.17931500  1
  O  O28  1  0.47888300  0.39619400  0.80233700  1
  O  O29  1  0.97948100  0.39489100  0.30256400  1
  O  O30  1  0.72788000  0.89516800  0.55279600  1
  O  O31  1  0.22733800  0.89538900  0.05246600  1
  O  O32  1  0.77227100  0.10468900  0.94727200  1
  O  O33  1  0.27249300  0.10478300  0.44751200  1
  O  O34  1  0.02122600  0.60383400  0.69770400  1
  O  O35  1  0.52040100  0.60507000  0.19736000  1
  O  O36  1  0.97102600  0.35961200  0.82021800  1
  O  O37  1  0.46947900  0.35844000  0.32060300  1
  O  O38  1  0.21955500  0.86006700  0.57037300  1
  O  O39  1  0.71910500  0.85992400  0.06955000  1
