# generated using pymatgen
data_Co2NiO4
_symmetry_space_group_name_H-M   'P 1'
_cell_length_a   6.40972680
_cell_length_b   5.86801145
_cell_length_c   5.85919133
_cell_angle_alpha   79.92531846
_cell_angle_beta   55.37496333
_cell_angle_gamma   55.30985716
_symmetry_Int_Tables_number   1
_chemical_formula_structural   Co2NiO4
_chemical_formula_sum   'Co4 Ni2 O8'
_cell_volume   145.47727143
_cell_formula_units_Z   2
loop_
 _symmetry_equiv_pos_site_id
 _symmetry_equiv_pos_as_xyz
  1  'x, y, z'
loop_
 _atom_site_type_symbol
 _atom_site_label
 _atom_site_symmetry_multiplicity
 _atom_site_fract_x
 _atom_site_fract_y
 _atom_site_fract_z
 _atom_site_occupancy
  Co  Co0  1  0.74998800  0.87501100  0.62504000  1
  Co  Co1  1  0.25003900  0.37500400  0.12494300  1
  Co  Co2  1  0.75006500  0.37503900  0.62495900  1
  Co  Co3  1  0.24995000  0.37501100  0.62502100  1
  Ni  Ni4  1  0.49883600  0.72273100  0.27798200  1
  Ni  Ni5  1  0.00091000  0.02698200  0.97248800  1
  O  O6  1  0.29084100  0.60196500  0.84102300  1
  O  O7  1  0.20925600  0.14800400  0.40876300  1
  O  O8  1  0.70994700  0.15750700  0.39761900  1
  O  O9  1  0.27863700  0.13378900  0.87774300  1
  O  O10  1  0.72165300  0.12270600  0.86712500  1
  O  O11  1  0.78997300  0.59269100  0.85238100  1
  O  O12  1  0.22132300  0.61624000  0.37226600  1
  O  O13  1  0.77858400  0.62732000  0.38264900  1
