# generated using pymatgen
data_Tb3(Co2Sn)4
_symmetry_space_group_name_H-M   'P 1'
_cell_length_a   7.55511600
_cell_length_b   8.85301398
_cell_length_c   8.85301398
_cell_angle_alpha   119.99999984
_cell_angle_beta   90.00000000
_cell_angle_gamma   90.00000000
_symmetry_Int_Tables_number   1
_chemical_formula_structural   Tb3(Co2Sn)4
_chemical_formula_sum   'Tb6 Co16 Sn8'
_cell_volume   512.80714681
_cell_formula_units_Z   2
loop_
 _symmetry_equiv_pos_site_id
 _symmetry_equiv_pos_as_xyz
  1  'x, y, z'
loop_
 _atom_site_type_symbol
 _atom_site_label
 _atom_site_symmetry_multiplicity
 _atom_site_fract_x
 _atom_site_fract_y
 _atom_site_fract_z
 _atom_site_occupancy
  Tb  Tb0  1  0.78462400  0.47549100  0.95098100  1
  Tb  Tb1  1  0.78462400  0.47549100  0.52450900  1
  Tb  Tb2  1  0.28462400  0.52450900  0.04901900  1
  Tb  Tb3  1  0.78462400  0.04901900  0.52450900  1
  Tb  Tb4  1  0.28462400  0.52450900  0.47549100  1
  Tb  Tb5  1  0.28462400  0.95098100  0.47549100  1
  Co  Co6  1  0.62464000  0.66666700  0.33333300  1
  Co  Co7  1  0.12464000  0.33333300  0.66666700  1
  Co  Co8  1  0.75491600  0.09784100  0.19568200  1
  Co  Co9  1  0.75491600  0.09784100  0.90215900  1
  Co  Co10  1  0.25491600  0.90215900  0.80431800  1
  Co  Co11  1  0.75491600  0.80431800  0.90215900  1
  Co  Co12  1  0.25491600  0.90215900  0.09784100  1
  Co  Co13  1  0.25491600  0.19568200  0.09784100  1
  Co  Co14  1  0.94361500  0.84073600  0.68147200  1
  Co  Co15  1  0.94361500  0.84073600  0.15926400  1
  Co  Co16  1  0.44361500  0.15926400  0.31852800  1
  Co  Co17  1  0.94361500  0.31852800  0.15926400  1
  Co  Co18  1  0.44361500  0.15926400  0.84073600  1
  Co  Co19  1  0.44361500  0.68147200  0.84073600  1
  Co  Co20  1  0.99875700  0.00000000  0.00000000  1
  Co  Co21  1  0.49875700  0.00000000  0.00000000  1
  Sn  Sn22  1  0.97435700  0.66666700  0.33333300  1
  Sn  Sn23  1  0.47435700  0.33333300  0.66666700  1
  Sn  Sn24  1  0.57262700  0.82906500  0.65812900  1
  Sn  Sn25  1  0.57262700  0.82906500  0.17093500  1
  Sn  Sn26  1  0.07262700  0.17093500  0.34187100  1
  Sn  Sn27  1  0.57262700  0.34187100  0.17093500  1
  Sn  Sn28  1  0.07262700  0.17093500  0.82906500  1
  Sn  Sn29  1  0.07262700  0.65812900  0.82906500  1
