# generated using pymatgen
data_In
_symmetry_space_group_name_H-M   'P 1'
_cell_length_a   10.15498098
_cell_length_b   10.15498098
_cell_length_c   10.15498098
_cell_angle_alpha   109.47122063
_cell_angle_beta   109.47122063
_cell_angle_gamma   109.47122063
_symmetry_Int_Tables_number   1
_chemical_formula_structural   In
_chemical_formula_sum   In29
_cell_volume   806.14924517
_cell_formula_units_Z   29
loop_
 _symmetry_equiv_pos_site_id
 _symmetry_equiv_pos_as_xyz
  1  'x, y, z'
loop_
 _atom_site_type_symbol
 _atom_site_label
 _atom_site_symmetry_multiplicity
 _atom_site_fract_x
 _atom_site_fract_y
 _atom_site_fract_z
 _atom_site_occupancy
  In  In0  1  0.00000000  0.00000000  0.00000000  1
  In  In1  1  0.64717500  0.00000000  0.00000000  1
  In  In2  1  0.37694600  0.19162900  0.00000000  1
  In  In3  1  0.19162900  0.37694600  0.00000000  1
  In  In4  1  0.68616200  0.40562900  0.00000000  1
  In  In5  1  0.00000000  0.64717500  0.00000000  1
  In  In6  1  0.40562900  0.68616200  0.00000000  1
  In  In7  1  0.80837100  0.80837100  0.18531700  1
  In  In8  1  0.37694600  0.00000000  0.19162900  1
  In  In9  1  0.00000000  0.37694600  0.19162900  1
  In  In10  1  0.59437100  0.59437100  0.28053300  1
  In  In11  1  0.71946700  0.31383800  0.31383800  1
  In  In12  1  0.31383800  0.71946700  0.31383800  1
  In  In13  1  0.35282500  0.35282500  0.35282500  1
  In  In14  1  0.19162900  0.00000000  0.37694600  1
  In  In15  1  0.00000000  0.19162900  0.37694600  1
  In  In16  1  0.68616200  0.00000000  0.40562900  1
  In  In17  1  0.00000000  0.68616200  0.40562900  1
  In  In18  1  0.59437100  0.28053300  0.59437100  1
  In  In19  1  0.28053300  0.59437100  0.59437100  1
  In  In20  1  0.81468300  0.62305400  0.62305400  1
  In  In21  1  0.62305400  0.81468300  0.62305400  1
  In  In22  1  0.00000000  0.00000000  0.64717500  1
  In  In23  1  0.40562900  0.00000000  0.68616200  1
  In  In24  1  0.00000000  0.40562900  0.68616200  1
  In  In25  1  0.31383800  0.31383800  0.71946700  1
  In  In26  1  0.80837100  0.18531700  0.80837100  1
  In  In27  1  0.18531700  0.80837100  0.80837100  1
  In  In28  1  0.62305400  0.62305400  0.81468300  1
