# generated using pymatgen
data_Zn
_symmetry_space_group_name_H-M   'P 1'
_cell_length_a   7.57269576
_cell_length_b   7.57269576
_cell_length_c   7.57269600
_cell_angle_alpha   20.18498518
_cell_angle_beta   20.18498518
_cell_angle_gamma   20.18498539
_symmetry_Int_Tables_number   1
_chemical_formula_structural   Zn
_chemical_formula_sum   Zn3
_cell_volume   45.23965556
_cell_formula_units_Z   3
loop_
 _symmetry_equiv_pos_site_id
 _symmetry_equiv_pos_as_xyz
  1  'x, y, z'
loop_
 _atom_site_type_symbol
 _atom_site_label
 _atom_site_symmetry_multiplicity
 _atom_site_fract_x
 _atom_site_fract_y
 _atom_site_fract_z
 _atom_site_occupancy
  Zn  Zn0  1  0.00000000  0.00000000  0.00000000  1
  Zn  Zn1  1  0.22199600  0.22199600  0.22199600  1
  Zn  Zn2  1  0.77800400  0.77800400  0.77800400  1
