# generated using pymatgen
data_Mo2N
_symmetry_space_group_name_H-M   'P 1'
_cell_length_a   5.04359459
_cell_length_b   5.04359459
_cell_length_c   5.04359459
_cell_angle_alpha   130.00391521
_cell_angle_beta   130.00391521
_cell_angle_gamma   73.40050570
_symmetry_Int_Tables_number   1
_chemical_formula_structural   Mo2N
_chemical_formula_sum   'Mo4 N2'
_cell_volume   73.47926556
_cell_formula_units_Z   2
loop_
 _symmetry_equiv_pos_site_id
 _symmetry_equiv_pos_as_xyz
  1  'x, y, z'
loop_
 _atom_site_type_symbol
 _atom_site_label
 _atom_site_symmetry_multiplicity
 _atom_site_fract_x
 _atom_site_fract_y
 _atom_site_fract_z
 _atom_site_occupancy
  Mo  Mo0  1  0.98980100  0.48980100  0.50000000  1
  Mo  Mo1  1  0.23980100  0.23980100  0.00000000  1
  Mo  Mo2  1  0.51019900  0.01019900  0.50000000  1
  Mo  Mo3  1  0.76019900  0.76019900  0.00000000  1
  N  N4  1  0.25000000  0.75000000  0.50000000  1
  N  N5  1  0.50000000  0.50000000  0.00000000  1
