# generated using pymatgen
data_Ho3Ni2
_symmetry_space_group_name_H-M   'P 1'
_cell_length_a   7.15090271
_cell_length_b   7.15090271
_cell_length_c   7.15090266
_cell_angle_alpha   72.63971598
_cell_angle_beta   72.63971598
_cell_angle_gamma   72.63971972
_symmetry_Int_Tables_number   1
_chemical_formula_structural   Ho3Ni2
_chemical_formula_sum   'Ho9 Ni6'
_cell_volume   324.19375893
_cell_formula_units_Z   3
loop_
 _symmetry_equiv_pos_site_id
 _symmetry_equiv_pos_as_xyz
  1  'x, y, z'
loop_
 _atom_site_type_symbol
 _atom_site_label
 _atom_site_symmetry_multiplicity
 _atom_site_fract_x
 _atom_site_fract_y
 _atom_site_fract_z
 _atom_site_occupancy
  Ho  Ho0  1  0.00000000  0.00000000  0.00000000  1
  Ho  Ho1  1  0.79261400  0.79261400  0.79261400  1
  Ho  Ho2  1  0.20738600  0.20738600  0.20738600  1
  Ho  Ho3  1  0.33703400  0.61229300  0.82891800  1
  Ho  Ho4  1  0.82891800  0.33703400  0.61229300  1
  Ho  Ho5  1  0.61229300  0.82891800  0.33703400  1
  Ho  Ho6  1  0.66296600  0.38770700  0.17108200  1
  Ho  Ho7  1  0.17108200  0.66296600  0.38770700  1
  Ho  Ho8  1  0.38770700  0.17108200  0.66296600  1
  Ni  Ni9  1  0.14270400  0.95929900  0.58640100  1
  Ni  Ni10  1  0.58640100  0.14270400  0.95929900  1
  Ni  Ni11  1  0.95929900  0.58640100  0.14270400  1
  Ni  Ni12  1  0.85729600  0.04070100  0.41359900  1
  Ni  Ni13  1  0.41359900  0.85729600  0.04070100  1
  Ni  Ni14  1  0.04070100  0.41359900  0.85729600  1
