# generated using pymatgen
data_SrFe12O19
_symmetry_space_group_name_H-M   'P 1'
_cell_length_a   6.01109974
_cell_length_b   6.01109974
_cell_length_c   23.35606200
_cell_angle_alpha   90.00000000
_cell_angle_beta   90.00000000
_cell_angle_gamma   119.99999710
_symmetry_Int_Tables_number   1
_chemical_formula_structural   SrFe12O19
_chemical_formula_sum   'Sr2 Fe24 O38'
_cell_volume   730.86662707
_cell_formula_units_Z   2
loop_
 _symmetry_equiv_pos_site_id
 _symmetry_equiv_pos_as_xyz
  1  'x, y, z'
loop_
 _atom_site_type_symbol
 _atom_site_label
 _atom_site_symmetry_multiplicity
 _atom_site_fract_x
 _atom_site_fract_y
 _atom_site_fract_z
 _atom_site_occupancy
  Sr  Sr0  1  0.33333300  0.66666700  0.74939800  1
  Sr  Sr1  1  0.66666700  0.33333300  0.24939800  1
  Fe  Fe2  1  0.66666700  0.33333300  0.52835700  1
  Fe  Fe3  1  0.33333300  0.66666700  0.47207600  1
  Fe  Fe4  1  0.33333300  0.66666700  0.02835700  1
  Fe  Fe5  1  0.66666700  0.33333300  0.97207600  1
  Fe  Fe6  1  0.00000000  0.00000000  0.50001200  1
  Fe  Fe7  1  0.00000000  0.00000000  0.00001200  1
  Fe  Fe8  1  0.66666700  0.33333300  0.69099400  1
  Fe  Fe9  1  0.33333300  0.66666700  0.30881900  1
  Fe  Fe10  1  0.33333300  0.66666700  0.19099400  1
  Fe  Fe11  1  0.66666700  0.33333300  0.80881900  1
  Fe  Fe12  1  0.83501800  0.67003600  0.39125300  1
  Fe  Fe13  1  0.83501800  0.16498200  0.39125300  1
  Fe  Fe14  1  0.32996400  0.16498200  0.39125300  1
  Fe  Fe15  1  0.17097700  0.34195300  0.60964800  1
  Fe  Fe16  1  0.17097700  0.82902300  0.60964800  1
  Fe  Fe17  1  0.65804700  0.82902300  0.60964800  1
  Fe  Fe18  1  0.16498200  0.32996400  0.89125300  1
  Fe  Fe19  1  0.16498200  0.83501800  0.89125300  1
  Fe  Fe20  1  0.67003600  0.83501800  0.89125300  1
  Fe  Fe21  1  0.82902300  0.65804700  0.10964800  1
  Fe  Fe22  1  0.82902300  0.17097700  0.10964800  1
  Fe  Fe23  1  0.34195300  0.17097700  0.10964800  1
  Fe  Fe24  1  0.00000000  0.00000000  0.75208000  1
  Fe  Fe25  1  0.00000000  0.00000000  0.25208000  1
  O  O26  1  0.33333300  0.66666700  0.55538600  1
  O  O27  1  0.66666700  0.33333300  0.44508000  1
  O  O28  1  0.66666700  0.33333300  0.05538600  1
  O  O29  1  0.33333300  0.66666700  0.94508000  1
  O  O30  1  0.00000000  0.00000000  0.65211700  1
  O  O31  1  0.00000000  0.00000000  0.34779500  1
  O  O32  1  0.00000000  0.00000000  0.15211700  1
  O  O33  1  0.00000000  0.00000000  0.84779500  1
  O  O34  1  0.82113400  0.64226700  0.75035900  1
  O  O35  1  0.82113400  0.17886600  0.75035900  1
  O  O36  1  0.35773300  0.17886600  0.75035900  1
  O  O37  1  0.17886600  0.35773300  0.25035900  1
  O  O38  1  0.17886600  0.82113400  0.25035900  1
  O  O39  1  0.64226700  0.82113400  0.25035900  1
  O  O40  1  0.84841500  0.69682900  0.55306200  1
  O  O41  1  0.84841500  0.15158500  0.55306200  1
  O  O42  1  0.30317100  0.15158500  0.55306200  1
  O  O43  1  0.15846700  0.31693400  0.44690900  1
  O  O44  1  0.15846700  0.84153300  0.44690900  1
  O  O45  1  0.68306600  0.84153300  0.44690900  1
  O  O46  1  0.15158500  0.30317100  0.05306200  1
  O  O47  1  0.15158500  0.84841500  0.05306200  1
  O  O48  1  0.69682900  0.84841500  0.05306200  1
  O  O49  1  0.84153300  0.68306600  0.94690900  1
  O  O50  1  0.84153300  0.15846700  0.94690900  1
  O  O51  1  0.31693400  0.15846700  0.94690900  1
  O  O52  1  0.49746800  0.99493700  0.65154600  1
  O  O53  1  0.49746800  0.50253200  0.65154600  1
  O  O54  1  0.00506300  0.50253200  0.65154600  1
  O  O55  1  0.50985200  0.01970400  0.34827400  1
  O  O56  1  0.50985200  0.49014800  0.34827400  1
  O  O57  1  0.98029600  0.49014800  0.34827400  1
  O  O58  1  0.50253200  0.00506300  0.15154600  1
  O  O59  1  0.50253200  0.49746800  0.15154600  1
  O  O60  1  0.99493700  0.49746800  0.15154600  1
  O  O61  1  0.49014800  0.98029600  0.84827400  1
  O  O62  1  0.49014800  0.50985200  0.84827400  1
  O  O63  1  0.01970400  0.50985200  0.84827400  1
