# generated using pymatgen
data_SrTa2Bi2O9
_symmetry_space_group_name_H-M   'P 1'
_cell_length_a   15.18643992
_cell_length_b   15.18643992
_cell_length_c   5.70105600
_cell_angle_alpha   90.00000000
_cell_angle_beta   90.00000000
_cell_angle_gamma   158.75944395
_symmetry_Int_Tables_number   1
_chemical_formula_structural   SrTa2Bi2O9
_chemical_formula_sum   'Sr2 Ta4 Bi4 O18'
_cell_volume   476.33984202
_cell_formula_units_Z   2
loop_
 _symmetry_equiv_pos_site_id
 _symmetry_equiv_pos_as_xyz
  1  'x, y, z'
loop_
 _atom_site_type_symbol
 _atom_site_label
 _atom_site_symmetry_multiplicity
 _atom_site_fract_x
 _atom_site_fract_y
 _atom_site_fract_z
 _atom_site_occupancy
  Sr  Sr0  1  0.25276400  0.25276400  0.02214100  1
  Sr  Sr1  1  0.74723600  0.74723600  0.52214100  1
  Ta  Ta2  1  0.31795600  0.17870900  0.52226000  1
  Ta  Ta3  1  0.17870900  0.31795600  0.52226000  1
  Ta  Ta4  1  0.82129100  0.68204400  0.02226000  1
  Ta  Ta5  1  0.68204400  0.82129100  0.02226000  1
  Bi  Bi6  1  0.45698300  0.05134400  0.49405300  1
  Bi  Bi7  1  0.54301700  0.94865600  0.99405300  1
  Bi  Bi8  1  0.05134400  0.45698300  0.49405300  1
  Bi  Bi9  1  0.94865600  0.54301700  0.99405300  1
  O  O10  1  0.56650900  0.43303700  0.26942100  1
  O  O11  1  0.07167800  0.33783000  0.51874900  1
  O  O12  1  0.23300800  0.78097900  0.23578200  1
  O  O13  1  0.76699300  0.21902100  0.73578200  1
  O  O14  1  0.92832200  0.66217000  0.01874900  1
  O  O15  1  0.94122800  0.05958900  0.77015100  1
  O  O16  1  0.05877200  0.94041100  0.27015100  1
  O  O17  1  0.21902100  0.76699300  0.73578200  1
  O  O18  1  0.72474000  0.72474000  0.01893000  1
  O  O19  1  0.43303700  0.56650900  0.26942100  1
  O  O20  1  0.66217000  0.92832200  0.01874900  1
  O  O21  1  0.43349100  0.56696300  0.76942100  1
  O  O22  1  0.56696300  0.43349100  0.76942100  1
  O  O23  1  0.78097900  0.23300700  0.23578200  1
  O  O24  1  0.27526000  0.27526000  0.51893000  1
  O  O25  1  0.05958900  0.94122800  0.77015100  1
  O  O26  1  0.33783000  0.07167800  0.51874900  1
  O  O27  1  0.94041100  0.05877200  0.27015100  1
