# generated using pymatgen
data_BaTi2O5
_symmetry_space_group_name_H-M   'P 1'
_cell_length_a   8.74977066
_cell_length_b   8.74977066
_cell_length_c   9.59550929
_cell_angle_alpha   77.48668850
_cell_angle_beta   77.48668850
_cell_angle_gamma   26.22006304
_symmetry_Int_Tables_number   1
_chemical_formula_structural   BaTi2O5
_chemical_formula_sum   'Ba3 Ti6 O15'
_cell_volume   316.43533894
_cell_formula_units_Z   3
loop_
 _symmetry_equiv_pos_site_id
 _symmetry_equiv_pos_as_xyz
  1  'x, y, z'
loop_
 _atom_site_type_symbol
 _atom_site_label
 _atom_site_symmetry_multiplicity
 _atom_site_fract_x
 _atom_site_fract_y
 _atom_site_fract_z
 _atom_site_occupancy
  Ba  Ba0  1  0.36680500  0.36932100  0.98405000  1
  Ba  Ba1  1  0.63067900  0.63319500  0.01595000  1
  Ba  Ba2  1  0.49666800  0.50333200  0.50000000  1
  Ti  Ti3  1  0.06585600  0.01180300  0.79058300  1
  Ti  Ti4  1  0.15717400  0.17589300  0.30438900  1
  Ti  Ti5  1  0.82410700  0.84282600  0.69561100  1
  Ti  Ti6  1  0.19219400  0.22068200  0.62740100  1
  Ti  Ti7  1  0.98819700  0.93414400  0.20941700  1
  Ti  Ti8  1  0.77931800  0.80780600  0.37259900  1
  O  O9  1  0.20326100  0.21771900  0.12265400  1
  O  O10  1  0.72381400  0.74706500  0.60104400  1
  O  O11  1  0.31406300  0.33600800  0.66270200  1
  O  O12  1  0.14261900  0.16282200  0.81401700  1
  O  O13  1  0.98574500  0.01425500  0.00000000  1
  O  O14  1  0.66399200  0.68593700  0.33729800  1
  O  O15  1  0.83717800  0.85738100  0.18598300  1
  O  O16  1  0.78228100  0.79673900  0.87734600  1
  O  O17  1  0.51369100  0.55617700  0.79098800  1
  O  O18  1  0.92646900  0.95838100  0.71066000  1
  O  O19  1  0.44382300  0.48630900  0.20901200  1
  O  O20  1  0.09939900  0.11736500  0.57483600  1
  O  O21  1  0.25293500  0.27618600  0.39895600  1
  O  O22  1  0.88263500  0.90060100  0.42516400  1
  O  O23  1  0.04161900  0.07353100  0.28934000  1
