# generated using pymatgen
data_Bi
_symmetry_space_group_name_H-M   'P 1'
_cell_length_a   4.68864169
_cell_length_b   4.68864169
_cell_length_c   3.35892630
_cell_angle_alpha   73.78985539
_cell_angle_beta   73.78985539
_cell_angle_gamma   83.84435068
_symmetry_Int_Tables_number   1
_chemical_formula_structural   Bi
_chemical_formula_sum   Bi2
_cell_volume   68.05165022
_cell_formula_units_Z   2
loop_
 _symmetry_equiv_pos_site_id
 _symmetry_equiv_pos_as_xyz
  1  'x, y, z'
loop_
 _atom_site_type_symbol
 _atom_site_label
 _atom_site_symmetry_multiplicity
 _atom_site_fract_x
 _atom_site_fract_y
 _atom_site_fract_z
 _atom_site_occupancy
  Bi  Bi0  1  0.75306100  0.75306100  0.14261800  1
  Bi  Bi1  1  0.24693900  0.24693900  0.85738200  1
