# generated using pymatgen
data_CdI2
_symmetry_space_group_name_H-M   'P 1'
_cell_length_a   4.33233820
_cell_length_b   4.33233820
_cell_length_c   44.44308500
_cell_angle_alpha   90.00000000
_cell_angle_beta   90.00000000
_cell_angle_gamma   120.00000310
_symmetry_Int_Tables_number   1
_chemical_formula_structural   CdI2
_chemical_formula_sum   'Cd6 I12'
_cell_volume   722.40296626
_cell_formula_units_Z   6
loop_
 _symmetry_equiv_pos_site_id
 _symmetry_equiv_pos_as_xyz
  1  'x, y, z'
loop_
 _atom_site_type_symbol
 _atom_site_label
 _atom_site_symmetry_multiplicity
 _atom_site_fract_x
 _atom_site_fract_y
 _atom_site_fract_z
 _atom_site_occupancy
  Cd  Cd0  1  0.33333300  0.66666700  0.70834100  1
  Cd  Cd1  1  0.66666700  0.33333300  0.04165700  1
  Cd  Cd2  1  0.33333300  0.66666700  0.87497500  1
  Cd  Cd3  1  0.33333300  0.66666700  0.20834700  1
  Cd  Cd4  1  0.33333300  0.66666700  0.54165100  1
  Cd  Cd5  1  0.33333300  0.66666700  0.37488500  1
  I  I6  1  0.33333300  0.66666700  0.08052600  1
  I  I7  1  0.00000000  0.00000000  0.16949100  1
  I  I8  1  0.00000000  0.00000000  0.66948800  1
  I  I9  1  0.00000000  0.00000000  0.33600500  1
  I  I10  1  0.66666700  0.33333300  0.91385500  1
  I  I11  1  0.66666700  0.33333300  0.41379100  1
  I  I12  1  0.00000000  0.00000000  0.00280500  1
  I  I13  1  0.66666700  0.33333300  0.58052000  1
  I  I14  1  0.66666700  0.33333300  0.24722600  1
  I  I15  1  0.00000000  0.00000000  0.83612500  1
  I  I16  1  0.00000000  0.00000000  0.50279200  1
  I  I17  1  0.66666700  0.33333300  0.74722000  1
