# generated using pymatgen
data_Gd(Al10Cr)2
_symmetry_space_group_name_H-M   'P 1'
_cell_length_a   10.17241211
_cell_length_b   10.17067663
_cell_length_c   10.17579147
_cell_angle_alpha   60.02314827
_cell_angle_beta   59.95833966
_cell_angle_gamma   59.98196843
_symmetry_Int_Tables_number   1
_chemical_formula_structural   Gd(Al10Cr)2
_chemical_formula_sum   'Gd2 Al40 Cr4'
_cell_volume   744.22925925
_cell_formula_units_Z   2
loop_
 _symmetry_equiv_pos_site_id
 _symmetry_equiv_pos_as_xyz
  1  'x, y, z'
loop_
 _atom_site_type_symbol
 _atom_site_label
 _atom_site_symmetry_multiplicity
 _atom_site_fract_x
 _atom_site_fract_y
 _atom_site_fract_z
 _atom_site_occupancy
  Gd  Gd0  1  0.87503500  0.87496800  0.87499500  1
  Gd  Gd1  1  0.12495600  0.12497300  0.12505800  1
  Al  Al2  1  0.21005300  0.67371300  0.94271600  1
  Al  Al3  1  0.23810700  0.51188700  0.23812100  1
  Al  Al4  1  0.67358500  0.94264400  0.21009800  1
  Al  Al5  1  0.32656200  0.32666700  0.05728500  1
  Al  Al6  1  0.76197500  0.76188700  0.48802100  1
  Al  Al7  1  0.51193400  0.23813600  0.51186200  1
  Al  Al8  1  0.32644100  0.78947900  0.32666000  1
  Al  Al9  1  0.51183100  0.23828300  0.23815200  1
  Al  Al10  1  0.76196000  0.48804600  0.48809300  1
  Al  Al11  1  0.99978500  0.99979700  0.99975400  1
  Al  Al12  1  0.32639700  0.78950700  0.05739400  1
  Al  Al13  1  0.32658600  0.32659900  0.78948400  1
  Al  Al14  1  0.94273900  0.21013600  0.67360400  1
  Al  Al15  1  0.32658600  0.05749600  0.32651200  1
  Al  Al16  1  0.78958100  0.32646100  0.32663700  1
  Al  Al17  1  0.67365900  0.67352200  0.94283800  1
  Al  Al18  1  0.48806900  0.48802700  0.76198400  1
  Al  Al19  1  0.94263300  0.67349900  0.67369000  1
  Al  Al20  1  0.21003600  0.67370000  0.67351300  1
  Al  Al21  1  0.78945400  0.05727600  0.32664500  1
  Al  Al22  1  0.23812500  0.23825000  0.51183400  1
  Al  Al23  1  0.23815900  0.51181400  0.51180700  1
  Al  Al24  1  0.67375100  0.21005700  0.94269300  1
  Al  Al25  1  0.48796700  0.76200600  0.48798300  1
  Al  Al26  1  0.21003600  0.94284400  0.67354800  1
  Al  Al27  1  0.94253700  0.67355300  0.21023000  1
  Al  Al28  1  0.51182300  0.51180700  0.23817400  1
  Al  Al29  1  0.05734100  0.78933300  0.32661500  1
  Al  Al30  1  0.99976000  0.99975600  0.50076100  1
  Al  Al31  1  0.67358200  0.94264700  0.67367300  1
  Al  Al32  1  0.78958000  0.32643000  0.05735500  1
  Al  Al33  1  0.76204200  0.48791000  0.76201500  1
  Al  Al34  1  0.32659800  0.05751200  0.78938100  1
  Al  Al35  1  0.05752800  0.32662900  0.78927800  1
  Al  Al36  1  0.99974900  0.50070000  0.99976100  1
  Al  Al37  1  0.05746600  0.32667500  0.32652100  1
  Al  Al38  1  0.48808400  0.76184200  0.76192600  1
  Al  Al39  1  0.67376100  0.21008500  0.67354400  1
  Al  Al40  1  0.50053800  0.99979800  0.99983700  1
  Al  Al41  1  0.67361200  0.67363500  0.20998600  1
  Cr  Cr42  1  0.99982200  0.50005100  0.50003000  1
  Cr  Cr43  1  0.50008900  0.50004000  0.50003500  1
  Cr  Cr44  1  0.50002400  0.99984300  0.50005100  1
  Cr  Cr45  1  0.50005800  0.50008000  0.99984500  1
