# generated using pymatgen
data_Co2SiO4
_symmetry_space_group_name_H-M   'P 1'
_cell_length_a   7.73166650
_cell_length_b   7.73166650
_cell_length_c   7.73166650
_cell_angle_alpha   135.75643111
_cell_angle_beta   114.41960988
_cell_angle_gamma   82.54217538
_symmetry_Int_Tables_number   1
_chemical_formula_structural   Co2SiO4
_chemical_formula_sum   'Co8 Si4 O16'
_cell_volume   283.37903595
_cell_formula_units_Z   4
loop_
 _symmetry_equiv_pos_site_id
 _symmetry_equiv_pos_as_xyz
  1  'x, y, z'
loop_
 _atom_site_type_symbol
 _atom_site_label
 _atom_site_symmetry_multiplicity
 _atom_site_fract_x
 _atom_site_fract_y
 _atom_site_fract_z
 _atom_site_occupancy
  Co  Co0  1  0.12652800  0.12652800  0.50000000  1
  Co  Co1  1  0.87347200  0.37347200  0.00000000  1
  Co  Co2  1  0.87347200  0.87347200  0.50000000  1
  Co  Co3  1  0.12652800  0.62652800  0.00000000  1
  Co  Co4  1  0.72406100  0.75000000  0.97406100  1
  Co  Co5  1  0.27593900  0.25000000  0.02593900  1
  Co  Co6  1  0.00000000  0.00000000  0.00000000  1
  Co  Co7  1  0.50000000  0.50000000  0.00000000  1
  Si  Si8  1  0.49552700  0.87856500  0.61696200  1
  Si  Si9  1  0.50447300  0.12143500  0.38303800  1
  Si  Si10  1  0.23839700  0.62143500  0.61696200  1
  Si  Si11  1  0.76160300  0.37856500  0.38303800  1
  O  O12  1  0.13082600  0.38755900  0.27233900  1
  O  O13  1  0.86917400  0.14151300  0.25673200  1
  O  O14  1  0.38478000  0.11244100  0.74326800  1
  O  O15  1  0.61522000  0.35848700  0.72766100  1
  O  O16  1  0.86917400  0.61244100  0.72766100  1
  O  O17  1  0.13082600  0.85848700  0.74326800  1
  O  O18  1  0.61522000  0.88755900  0.25673200  1
  O  O19  1  0.38478000  0.64151300  0.27233900  1
  O  O20  1  0.26692200  0.01289900  0.25402300  1
  O  O21  1  0.73307800  0.98710100  0.74597700  1
  O  O22  1  0.74112500  0.48710100  0.25402300  1
  O  O23  1  0.25887500  0.51289900  0.74597700  1
  O  O24  1  0.03123200  0.25000000  0.78123200  1
  O  O25  1  0.96876800  0.75000000  0.21876800  1
  O  O26  1  0.53306700  0.25000000  0.28306700  1
  O  O27  1  0.46693300  0.75000000  0.71693300  1
