# generated using pymatgen
data_RuO4
_symmetry_space_group_name_H-M   'P 1'
_cell_length_a   5.43216677
_cell_length_b   5.43216677
_cell_length_c   8.96843857
_cell_angle_alpha   66.06179768
_cell_angle_beta   66.06179768
_cell_angle_gamma   51.01086641
_symmetry_Int_Tables_number   1
_chemical_formula_structural   RuO4
_chemical_formula_sum   'Ru2 O8'
_cell_volume   183.74034672
_cell_formula_units_Z   2
loop_
 _symmetry_equiv_pos_site_id
 _symmetry_equiv_pos_as_xyz
  1  'x, y, z'
loop_
 _atom_site_type_symbol
 _atom_site_label
 _atom_site_symmetry_multiplicity
 _atom_site_fract_x
 _atom_site_fract_y
 _atom_site_fract_z
 _atom_site_occupancy
  Ru  Ru0  1  0.24168800  0.75831200  0.25000000  1
  Ru  Ru1  1  0.75831200  0.24168800  0.75000000  1
  O  O2  1  0.14184200  0.08243800  0.08384100  1
  O  O3  1  0.66030500  0.56671000  0.80393800  1
  O  O4  1  0.91756200  0.85815800  0.41615900  1
  O  O5  1  0.33969500  0.43329000  0.19606200  1
  O  O6  1  0.43329000  0.33969500  0.69606200  1
  O  O7  1  0.08243800  0.14184200  0.58384100  1
  O  O8  1  0.56671000  0.66030500  0.30393800  1
  O  O9  1  0.85815800  0.91756200  0.91615900  1
