# generated using pymatgen
data_BaTm2O4
_symmetry_space_group_name_H-M   'P 1'
_cell_length_a   6.01040774
_cell_length_b   6.01040774
_cell_length_c   21.79902628
_cell_angle_alpha   89.64348447
_cell_angle_beta   89.64348447
_cell_angle_gamma   61.14486593
_symmetry_Int_Tables_number   1
_chemical_formula_structural   BaTm2O4
_chemical_formula_sum   'Ba6 Tm12 O24'
_cell_volume   689.69922272
_cell_formula_units_Z   6
loop_
 _symmetry_equiv_pos_site_id
 _symmetry_equiv_pos_as_xyz
  1  'x, y, z'
loop_
 _atom_site_type_symbol
 _atom_site_label
 _atom_site_symmetry_multiplicity
 _atom_site_fract_x
 _atom_site_fract_y
 _atom_site_fract_z
 _atom_site_occupancy
  Ba  Ba0  1  0.44689900  0.22513900  0.64390800  1
  Ba  Ba1  1  0.22513900  0.44689900  0.14390800  1
  Ba  Ba2  1  0.11086900  0.88913100  0.75000000  1
  Ba  Ba3  1  0.88913100  0.11086900  0.25000000  1
  Ba  Ba4  1  0.55310100  0.77486100  0.35609200  1
  Ba  Ba5  1  0.77486100  0.55310100  0.85609200  1
  Tm  Tm6  1  0.44315400  0.21881100  0.80572800  1
  Tm  Tm7  1  0.21881100  0.44315400  0.30572800  1
  Tm  Tm8  1  0.45526200  0.21570900  0.94770100  1
  Tm  Tm9  1  0.21570900  0.45526200  0.44770100  1
  Tm  Tm10  1  0.11409600  0.87749300  0.92937600  1
  Tm  Tm11  1  0.87749300  0.11409600  0.42937600  1
  Tm  Tm12  1  0.12250700  0.88590400  0.57062400  1
  Tm  Tm13  1  0.88590400  0.12250700  0.07062400  1
  Tm  Tm14  1  0.78429100  0.54473800  0.55229900  1
  Tm  Tm15  1  0.54473800  0.78429100  0.05229900  1
  Tm  Tm16  1  0.78118900  0.55684600  0.69427200  1
  Tm  Tm17  1  0.55684600  0.78118900  0.19427200  1
  O  O18  1  0.20668100  0.09245300  0.00290600  1
  O  O19  1  0.09245300  0.20668100  0.50290600  1
  O  O20  1  0.34359100  0.99594300  0.87557700  1
  O  O21  1  0.99594300  0.34359100  0.37557700  1
  O  O22  1  0.33712600  0.10470500  0.25194000  1
  O  O23  1  0.10470500  0.33712600  0.75194000  1
  O  O24  1  0.23204500  0.52779900  0.88054400  1
  O  O25  1  0.52779900  0.23204500  0.38054400  1
  O  O26  1  0.77098800  0.11044900  0.87646600  1
  O  O27  1  0.11044900  0.77098800  0.37646600  1
  O  O28  1  0.54575100  0.45424900  0.75000000  1
  O  O29  1  0.50000000  0.50000000  0.50000000  1
  O  O30  1  0.50000000  0.50000000  0.00000000  1
  O  O31  1  0.45424900  0.54575100  0.25000000  1
  O  O32  1  0.88955100  0.22901200  0.62353400  1
  O  O33  1  0.22901200  0.88955100  0.12353400  1
  O  O34  1  0.47220100  0.76795500  0.61945600  1
  O  O35  1  0.76795500  0.47220100  0.11945600  1
  O  O36  1  0.66287400  0.89529500  0.74806000  1
  O  O37  1  0.89529500  0.66287400  0.24806000  1
  O  O38  1  0.00405700  0.65640900  0.62442300  1
  O  O39  1  0.65640900  0.00405700  0.12442300  1
  O  O40  1  0.79331900  0.90754700  0.99709400  1
  O  O41  1  0.90754700  0.79331900  0.49709400  1
