# generated using pymatgen
data_La2TiCoO6
_symmetry_space_group_name_H-M   'P 1'
_cell_length_a   5.67952901
_cell_length_b   9.70327652
_cell_length_c   9.70827557
_cell_angle_alpha   70.18717071
_cell_angle_beta   89.99525513
_cell_angle_gamma   90.00504969
_symmetry_Int_Tables_number   1
_chemical_formula_structural   La2TiCoO6
_chemical_formula_sum   'La8 Ti4 Co4 O24'
_cell_volume   503.35268585
_cell_formula_units_Z   4
loop_
 _symmetry_equiv_pos_site_id
 _symmetry_equiv_pos_as_xyz
  1  'x, y, z'
loop_
 _atom_site_type_symbol
 _atom_site_label
 _atom_site_symmetry_multiplicity
 _atom_site_fract_x
 _atom_site_fract_y
 _atom_site_fract_z
 _atom_site_occupancy
  La  La0  1  0.45563800  0.12072700  0.13034400  1
  La  La1  1  0.45493300  0.62013600  0.63130100  1
  La  La2  1  0.54514400  0.87984800  0.86871500  1
  La  La3  1  0.54443200  0.37926400  0.36967100  1
  La  La4  1  0.95575000  0.87931100  0.36963400  1
  La  La5  1  0.95476100  0.37965800  0.86888500  1
  La  La6  1  0.04520500  0.12035900  0.63109700  1
  La  La7  1  0.04420800  0.62070400  0.13034600  1
  Ti  Ti8  1  0.00026500  0.99963200  0.00054100  1
  Ti  Ti9  1  0.99984100  0.50048400  0.49950700  1
  Ti  Ti10  1  0.50027800  0.99978500  0.49960500  1
  Ti  Ti11  1  0.49963900  0.50013400  0.00036100  1
  Co  Co12  1  0.99999400  0.75001200  0.75001300  1
  Co  Co13  1  0.50001000  0.24999200  0.74998300  1
  Co  Co14  1  0.99999000  0.25001100  0.25001800  1
  Co  Co15  1  0.50000700  0.74999100  0.24998300  1
  O  O16  1  0.71785400  0.92454600  0.12369000  1
  O  O17  1  0.71869600  0.42491600  0.62388600  1
  O  O18  1  0.28131500  0.07511200  0.87614300  1
  O  O19  1  0.28215900  0.57548500  0.37633900  1
  O  O20  1  0.21794000  0.07517400  0.37614800  1
  O  O21  1  0.21868000  0.57538100  0.87628000  1
  O  O22  1  0.78130400  0.92459200  0.62367700  1
  O  O23  1  0.78203000  0.42479300  0.12381600  1
  O  O24  1  0.02525500  0.66374200  0.57742100  1
  O  O25  1  0.02532800  0.16389100  0.07718800  1
  O  O26  1  0.97466500  0.33612600  0.42284800  1
  O  O27  1  0.97473500  0.83627800  0.92261400  1
  O  O28  1  0.52513500  0.83589500  0.42264500  1
  O  O29  1  0.52525200  0.33639000  0.92283400  1
  O  O30  1  0.47470200  0.16358300  0.57713800  1
  O  O31  1  0.47483000  0.66406900  0.07733100  1
  O  O32  1  0.20086200  0.88041000  0.16341900  1
  O  O33  1  0.20220200  0.38077500  0.66316100  1
  O  O34  1  0.79782600  0.11926000  0.83687000  1
  O  O35  1  0.79915400  0.61962100  0.33661200  1
  O  O36  1  0.70110100  0.11933400  0.33644300  1
  O  O37  1  0.70219900  0.61941600  0.83692700  1
  O  O38  1  0.29779700  0.88053600  0.66304000  1
  O  O39  1  0.29888000  0.38062600  0.16352900  1
