# generated using pymatgen
data_Y2Fe17
_symmetry_space_group_name_H-M   'P 1'
_cell_length_a   8.26022700
_cell_length_b   8.48210067
_cell_length_c   8.48210067
_cell_angle_alpha   120.01841213
_cell_angle_beta   90.00000000
_cell_angle_gamma   90.00000000
_symmetry_Int_Tables_number   1
_chemical_formula_structural   Y2Fe17
_chemical_formula_sum   'Y4 Fe34'
_cell_volume   514.57520251
_cell_formula_units_Z   2
loop_
 _symmetry_equiv_pos_site_id
 _symmetry_equiv_pos_as_xyz
  1  'x, y, z'
loop_
 _atom_site_type_symbol
 _atom_site_label
 _atom_site_symmetry_multiplicity
 _atom_site_fract_x
 _atom_site_fract_y
 _atom_site_fract_z
 _atom_site_occupancy
  Y  Y0  1  0.75000000  0.00001200  0.99998800  1
  Y  Y1  1  0.25000000  0.99998800  0.00001200  1
  Y  Y2  1  0.25000000  0.66657200  0.33342800  1
  Y  Y3  1  0.75000000  0.33342800  0.66657200  1
  Fe  Fe4  1  0.60677200  0.66668500  0.33331500  1
  Fe  Fe5  1  0.39322800  0.33331500  0.66668500  1
  Fe  Fe6  1  0.10677200  0.33331500  0.66668500  1
  Fe  Fe7  1  0.89322800  0.66668500  0.33331500  1
  Fe  Fe8  1  0.50000000  0.50000000  0.00000000  1
  Fe  Fe9  1  0.50000000  0.50000000  0.50000000  1
  Fe  Fe10  1  0.50000000  0.00000000  0.50000000  1
  Fe  Fe11  1  0.00000000  0.50000000  0.00000000  1
  Fe  Fe12  1  0.00000000  0.50000000  0.50000000  1
  Fe  Fe13  1  0.00000000  0.00000000  0.50000000  1
  Fe  Fe14  1  0.75000000  0.67044200  0.03986200  1
  Fe  Fe15  1  0.75000000  0.36954500  0.32969300  1
  Fe  Fe16  1  0.75000000  0.96012800  0.63060600  1
  Fe  Fe17  1  0.75000000  0.36939400  0.03987200  1
  Fe  Fe18  1  0.75000000  0.96013800  0.32955800  1
  Fe  Fe19  1  0.75000000  0.67030700  0.63045500  1
  Fe  Fe20  1  0.25000000  0.32955800  0.96013800  1
  Fe  Fe21  1  0.25000000  0.63045500  0.67030700  1
  Fe  Fe22  1  0.25000000  0.03987200  0.36939400  1
  Fe  Fe23  1  0.25000000  0.63060600  0.96012800  1
  Fe  Fe24  1  0.25000000  0.03986200  0.67044200  1
  Fe  Fe25  1  0.25000000  0.32969300  0.36954500  1
  Fe  Fe26  1  0.48436200  0.83353800  0.66746700  1
  Fe  Fe27  1  0.48435900  0.83375800  0.16624200  1
  Fe  Fe28  1  0.48436200  0.33253300  0.16646200  1
  Fe  Fe29  1  0.51563800  0.16646200  0.33253300  1
  Fe  Fe30  1  0.51564100  0.16624200  0.83375800  1
  Fe  Fe31  1  0.51563800  0.66746700  0.83353800  1
  Fe  Fe32  1  0.98436200  0.16646200  0.33253300  1
  Fe  Fe33  1  0.98435900  0.16624200  0.83375800  1
  Fe  Fe34  1  0.98436200  0.66746700  0.83353800  1
  Fe  Fe35  1  0.01563800  0.83353800  0.66746700  1
  Fe  Fe36  1  0.01564100  0.83375800  0.16624200  1
  Fe  Fe37  1  0.01563800  0.33253300  0.16646200  1
