# generated using pymatgen
data_Fe2O3
_symmetry_space_group_name_H-M   'P 1'
_cell_length_a   10.02216891
_cell_length_b   10.81936449
_cell_length_c   9.82123795
_cell_angle_alpha   90.87514004
_cell_angle_beta   93.31263555
_cell_angle_gamma   95.46998566
_symmetry_Int_Tables_number   1
_chemical_formula_structural   Fe2O3
_chemical_formula_sum   'Fe32 O48'
_cell_volume   1058.09893427
_cell_formula_units_Z   16
loop_
 _symmetry_equiv_pos_site_id
 _symmetry_equiv_pos_as_xyz
  1  'x, y, z'
loop_
 _atom_site_type_symbol
 _atom_site_label
 _atom_site_symmetry_multiplicity
 _atom_site_fract_x
 _atom_site_fract_y
 _atom_site_fract_z
 _atom_site_occupancy
  Fe  Fe0  1  0.41446635  0.72472339  0.87551196  1
  Fe  Fe1  1  0.56540828  0.04680148  0.68773488  1
  Fe  Fe2  1  0.69705394  0.83338585  0.81978731  1
  Fe  Fe3  1  0.92037113  0.16285918  0.46447361  1
  Fe  Fe4  1  0.48735476  0.39589198  0.22687219  1
  Fe  Fe5  1  0.42691173  0.45145216  0.51883650  1
  Fe  Fe6  1  0.46467182  0.96208503  0.03706599  1
  Fe  Fe7  1  0.63175511  0.53634270  0.02122330  1
  Fe  Fe8  1  0.08673043  0.70190374  0.48404694  1
  Fe  Fe9  1  0.17767529  0.51341825  0.68697700  1
  Fe  Fe10  1  0.87728214  0.74334698  0.22414867  1
  Fe  Fe11  1  0.32315764  0.25021968  0.71970475  1
  Fe  Fe12  1  0.69196712  0.32846362  0.70410048  1
  Fe  Fe13  1  0.16718370  0.29021985  0.34480197  1
  Fe  Fe14  1  0.26052950  0.48080736  0.98138260  1
  Fe  Fe15  1  0.22755456  0.95336698  0.73497694  1
  Fe  Fe16  1  0.91818509  0.11579501  0.76107657  1
  Fe  Fe17  1  0.68391704  0.59022355  0.70249647  1
  Fe  Fe18  1  0.41655660  0.74599665  0.55916750  1
  Fe  Fe19  1  0.17164535  0.17545799  0.95447127  1
  Fe  Fe20  1  0.60430699  0.67539800  0.32530053  1
  Fe  Fe21  1  0.04551042  0.51936820  0.22122751  1
  Fe  Fe22  1  0.28843328  0.76162120  0.22528990  1
  Fe  Fe23  1  0.60860946  0.11027116  0.32832814  1
  Fe  Fe24  1  0.76245711  0.00760587  0.05110337  1
  Fe  Fe25  1  0.98683957  0.85389488  0.97101814  1
  Fe  Fe26  1  0.81387906  0.30609239  0.16965528  1
  Fe  Fe27  1  0.91087157  0.44878314  0.49939760  1
  Fe  Fe28  1  0.14375886  0.95701515  0.38906759  1
  Fe  Fe29  1  0.31991615  0.12154730  0.20139279  1
  Fe  Fe30  1  0.92968609  0.52770282  0.92459215  1
  Fe  Fe31  1  0.78923676  0.86195148  0.55894360  1
  O  O32  1  0.74402505  0.46156574  0.58244241  1
  O  O33  1  0.89680840  0.90740143  0.13581562  1
  O  O34  1  0.51374753  0.60735077  0.60963162  1
  O  O35  1  0.72344556  0.16555305  0.75043419  1
  O  O36  1  0.00696251  0.37330704  0.34154710  1
  O  O37  1  0.78515630  0.20081878  0.32937450  1
  O  O38  1  0.36938620  0.82773361  0.72627494  1
  O  O39  1  0.38405918  0.08398487  0.71595665  1
  O  O40  1  0.19961424  0.57585128  0.13740739  1
  O  O41  1  0.01436874  0.57462023  0.60954226  1
  O  O42  1  0.48012327  0.21720083  0.26001470  1
  O  O43  1  0.59863037  0.96048560  0.90439140  1
  O  O44  1  0.14171908  0.87925730  0.88493858  1
  O  O45  1  0.92707936  0.28892742  0.59937583  1
  O  O46  1  0.50163253  0.33601609  0.65851962  1
  O  O47  1  0.24676279  0.37137179  0.59858907  1
  O  O48  1  0.13698151  0.11502260  0.75919228  1
  O  O49  1  0.98573057  0.19003987  0.93016975  1
  O  O50  1  0.73813135  0.47522675  0.85410768  1
  O  O51  1  0.61157835  0.99802412  0.17290997  1
  O  O52  1  0.30066986  0.96974963  0.29240836  1
  O  O53  1  0.92592894  0.43531811  0.08736056  1
  O  O54  1  0.88785383  0.02114862  0.58015652  1
  O  O55  1  0.08825948  0.79392522  0.30240566  1
  O  O56  1  0.65822509  0.38945621  0.13236844  1
  O  O57  1  0.81000004  0.73630897  0.69997587  1
  O  O58  1  0.32810925  0.39290199  0.34706546  1
  O  O59  1  0.57501163  0.07804691  0.50281465  1
  O  O60  1  0.93640626  0.68486554  0.02413742  1
  O  O61  1  0.39151577  0.79582776  0.04872801  1
  O  O62  1  0.82162742  0.17454250  0.04708402  1
  O  O63  1  0.28731252  0.31537275  0.89759550  1
  O  O64  1  0.60318817  0.67817810  0.87663492  1
  O  O65  1  0.13984325  0.87466182  0.56115398  1
  O  O66  1  0.85577411  0.95068936  0.87078893  1
  O  O67  1  0.44906226  0.75497389  0.36639599  1
  O  O68  1  0.09664086  0.12674146  0.40640003  1
  O  O69  1  0.08451997  0.47524914  0.85851467  1
  O  O70  1  0.18417217  0.22829375  0.15831678  1
  O  O71  1  0.76853675  0.78389494  0.38768889  1
  O  O72  1  0.32762218  0.07251837  0.01569820  1
  O  O73  1  0.94149765  0.60002401  0.34944608  1
  O  O74  1  0.25281040  0.63012349  0.52863113  1
  O  O75  1  0.61840107  0.87611329  0.64106299  1
  O  O76  1  0.44687984  0.50010898  0.06957924  1
  O  O77  1  0.31786480  0.57462077  0.82402421  1
  O  O78  1  0.69584597  0.66253976  0.15982709  1
  O  O79  1  0.56131265  0.50605146  0.37353632  1
