# generated using pymatgen
data_Na3Co2SbO6
_symmetry_space_group_name_H-M   'P 1'
_cell_length_a   5.50103091
_cell_length_b   9.25075990
_cell_length_c   5.69856561
_cell_angle_alpha   105.66533596
_cell_angle_beta   98.50369248
_cell_angle_gamma   89.96535950
_symmetry_Int_Tables_number   1
_chemical_formula_structural   Na3Co2SbO6
_chemical_formula_sum   'Na6 Co4 Sb2 O12'
_cell_volume   275.91577430
_cell_formula_units_Z   2
loop_
 _symmetry_equiv_pos_site_id
 _symmetry_equiv_pos_as_xyz
  1  'x, y, z'
loop_
 _atom_site_type_symbol
 _atom_site_label
 _atom_site_symmetry_multiplicity
 _atom_site_fract_x
 _atom_site_fract_y
 _atom_site_fract_z
 _atom_site_occupancy
  Na  Na0  1  0.25000100  0.25000200  0.50000300  1
  Na  Na1  1  0.74999100  0.75000600  0.50001400  1
  Na  Na2  1  0.75857600  0.41313800  0.50080300  1
  Na  Na3  1  0.25867800  0.91317200  0.50080400  1
  Na  Na4  1  0.74141400  0.08685800  0.49918700  1
  Na  Na5  1  0.24134500  0.58682700  0.49919200  1
  Co  Co6  1  0.50053100  0.83513200  0.99976200  1
  Co  Co7  1  0.99941300  0.66484600  0.00023700  1
  Co  Co8  1  0.00058500  0.33518900  0.99977300  1
  Co  Co9  1  0.49942400  0.16480500  0.00022900  1
  Sb  Sb10  1  0.49998300  0.49993000  0.99993200  1
  Sb  Sb11  1  0.99998600  0.00007900  0.00006300  1
  O  O12  1  0.38290800  0.37534500  0.20673200  1
  O  O13  1  0.88304700  0.87536800  0.20683500  1
  O  O14  1  0.11709800  0.12465300  0.79327100  1
  O  O15  1  0.61689800  0.62462400  0.79312600  1
  O  O16  1  0.61716000  0.30589400  0.79203400  1
  O  O17  1  0.11719100  0.80590900  0.79204100  1
  O  O18  1  0.88284500  0.19411000  0.20797700  1
  O  O19  1  0.38286600  0.69408400  0.20801100  1
  O  O20  1  0.35004100  0.03300800  0.20017900  1
  O  O21  1  0.84988700  0.53298500  0.20013200  1
  O  O22  1  0.14997600  0.46701900  0.79984500  1
  O  O23  1  0.65015500  0.96701500  0.79981900  1
