# generated using pymatgen
data_Er3(CuSn)4
_symmetry_space_group_name_H-M   'P 1'
_cell_length_a   8.38307996
_cell_length_b   8.38307996
_cell_length_c   6.93574545
_cell_angle_alpha   65.94511915
_cell_angle_beta   65.94511915
_cell_angle_gamma   30.80704437
_symmetry_Int_Tables_number   1
_chemical_formula_structural   Er3(CuSn)4
_chemical_formula_sum   'Er3 Cu4 Sn4'
_cell_volume   226.22031073
_cell_formula_units_Z   1
loop_
 _symmetry_equiv_pos_site_id
 _symmetry_equiv_pos_as_xyz
  1  'x, y, z'
loop_
 _atom_site_type_symbol
 _atom_site_label
 _atom_site_symmetry_multiplicity
 _atom_site_fract_x
 _atom_site_fract_y
 _atom_site_fract_z
 _atom_site_occupancy
  Er  Er0  1  0.00000000  0.00000000  0.00000000  1
  Er  Er1  1  0.13022300  0.13022300  0.36004200  1
  Er  Er2  1  0.86977700  0.86977700  0.63995800  1
  Cu  Cu3  1  0.33711500  0.33711500  0.97975700  1
  Cu  Cu4  1  0.66288500  0.66288500  0.02024300  1
  Cu  Cu5  1  0.32112500  0.32112500  0.36902300  1
  Cu  Cu6  1  0.67887500  0.67887500  0.63097700  1
  Sn  Sn7  1  0.21743700  0.21743700  0.79371600  1
  Sn  Sn8  1  0.78256300  0.78256300  0.20628400  1
  Sn  Sn9  1  0.50661800  0.50661800  0.69652200  1
  Sn  Sn10  1  0.49338200  0.49338200  0.30347800  1
