# generated using pymatgen
data_Nd2Fe17
_symmetry_space_group_name_H-M   'P 1'
_cell_length_a   6.46797142
_cell_length_b   6.46797142
_cell_length_c   6.46797167
_cell_angle_alpha   83.13388976
_cell_angle_beta   83.13388976
_cell_angle_gamma   83.13389825
_symmetry_Int_Tables_number   1
_chemical_formula_structural   Nd2Fe17
_chemical_formula_sum   'Nd2 Fe17'
_cell_volume   265.19310721
_cell_formula_units_Z   1
loop_
 _symmetry_equiv_pos_site_id
 _symmetry_equiv_pos_as_xyz
  1  'x, y, z'
loop_
 _atom_site_type_symbol
 _atom_site_label
 _atom_site_symmetry_multiplicity
 _atom_site_fract_x
 _atom_site_fract_y
 _atom_site_fract_z
 _atom_site_occupancy
  Nd  Nd0  1  0.65809000  0.65809000  0.65809000  1
  Nd  Nd1  1  0.34191000  0.34191000  0.34191000  1
  Fe  Fe2  1  0.00000000  0.00000000  0.50000000  1
  Fe  Fe3  1  0.50000000  0.00000000  0.00000000  1
  Fe  Fe4  1  0.00000000  0.50000000  0.00000000  1
  Fe  Fe5  1  0.71055500  0.28944500  0.00000000  1
  Fe  Fe6  1  0.00000000  0.71055500  0.28944500  1
  Fe  Fe7  1  0.28944500  0.00000000  0.71055500  1
  Fe  Fe8  1  0.00000000  0.28944500  0.71055500  1
  Fe  Fe9  1  0.71055500  0.00000000  0.28944500  1
  Fe  Fe10  1  0.28944500  0.71055500  0.00000000  1
  Fe  Fe11  1  0.34136400  0.34136400  0.84608900  1
  Fe  Fe12  1  0.84608900  0.34136400  0.34136400  1
  Fe  Fe13  1  0.34136400  0.84608900  0.34136400  1
  Fe  Fe14  1  0.65863600  0.65863600  0.15391100  1
  Fe  Fe15  1  0.15391100  0.65863600  0.65863600  1
  Fe  Fe16  1  0.65863600  0.15391100  0.65863600  1
  Fe  Fe17  1  0.90299600  0.90299600  0.90299600  1
  Fe  Fe18  1  0.09700400  0.09700400  0.09700400  1
