# generated using pymatgen
data_Ce3(Ge3Pd10)2
_symmetry_space_group_name_H-M   'P 1'
_cell_length_a   8.87999121
_cell_length_b   8.87999121
_cell_length_c   8.87999121
_cell_angle_alpha   60.00000000
_cell_angle_beta   60.00000000
_cell_angle_gamma   60.00000000
_symmetry_Int_Tables_number   1
_chemical_formula_structural   Ce3(Ge3Pd10)2
_chemical_formula_sum   'Ce3 Ge6 Pd20'
_cell_volume   495.13384028
_cell_formula_units_Z   1
loop_
 _symmetry_equiv_pos_site_id
 _symmetry_equiv_pos_as_xyz
  1  'x, y, z'
loop_
 _atom_site_type_symbol
 _atom_site_label
 _atom_site_symmetry_multiplicity
 _atom_site_fract_x
 _atom_site_fract_y
 _atom_site_fract_z
 _atom_site_occupancy
  Ce  Ce0  1  0.00000000  0.00000000  0.00000000  1
  Ce  Ce1  1  0.25000000  0.25000000  0.25000000  1
  Ce  Ce2  1  0.75000000  0.75000000  0.75000000  1
  Ge  Ge3  1  0.26865500  0.73134500  0.26865500  1
  Ge  Ge4  1  0.26865500  0.26865500  0.73134500  1
  Ge  Ge5  1  0.26865500  0.73134500  0.73134500  1
  Ge  Ge6  1  0.73134500  0.26865500  0.73134500  1
  Ge  Ge7  1  0.73134500  0.26865500  0.26865500  1
  Ge  Ge8  1  0.73134500  0.73134500  0.26865500  1
  Pd  Pd9  1  0.85476400  0.38174500  0.38174500  1
  Pd  Pd10  1  0.34845600  0.65154400  0.00000000  1
  Pd  Pd11  1  0.34845600  0.00000000  0.00000000  1
  Pd  Pd12  1  0.00000000  0.34845600  0.65154400  1
  Pd  Pd13  1  0.00000000  0.34845600  0.00000000  1
  Pd  Pd14  1  0.38174500  0.38174500  0.38174500  1
  Pd  Pd15  1  0.00000000  0.00000000  0.34845600  1
  Pd  Pd16  1  0.00000000  0.65154400  0.00000000  1
  Pd  Pd17  1  0.00000000  0.00000000  0.65154400  1
  Pd  Pd18  1  0.65154400  0.00000000  0.34845600  1
  Pd  Pd19  1  0.14523600  0.61825500  0.61825500  1
  Pd  Pd20  1  0.61825500  0.61825500  0.61825500  1
  Pd  Pd21  1  0.65154400  0.34845600  0.00000000  1
  Pd  Pd22  1  0.61825500  0.14523600  0.61825500  1
  Pd  Pd23  1  0.65154400  0.00000000  0.00000000  1
  Pd  Pd24  1  0.61825500  0.61825500  0.14523600  1
  Pd  Pd25  1  0.00000000  0.65154400  0.34845600  1
  Pd  Pd26  1  0.34845600  0.00000000  0.65154400  1
  Pd  Pd27  1  0.38174500  0.85476400  0.38174500  1
  Pd  Pd28  1  0.38174500  0.38174500  0.85476400  1
