# generated using pymatgen
data_TlGaSe2
_symmetry_space_group_name_H-M   'P 1'
_cell_length_a   7.75384024
_cell_length_b   7.75384024
_cell_length_c   15.89755644
_cell_angle_alpha   82.87836028
_cell_angle_beta   82.87836028
_cell_angle_gamma   89.99214152
_symmetry_Int_Tables_number   1
_chemical_formula_structural   TlGaSe2
_chemical_formula_sum   'Tl8 Ga8 Se16'
_cell_volume   940.99021585
_cell_formula_units_Z   8
loop_
 _symmetry_equiv_pos_site_id
 _symmetry_equiv_pos_as_xyz
  1  'x, y, z'
loop_
 _atom_site_type_symbol
 _atom_site_label
 _atom_site_symmetry_multiplicity
 _atom_site_fract_x
 _atom_site_fract_y
 _atom_site_fract_z
 _atom_site_occupancy
  Tl  Tl0  1  0.30503100  0.17936200  0.76056800  1
  Tl  Tl1  1  0.67609200  0.29634500  0.27051900  1
  Tl  Tl2  1  0.74932100  0.86932400  0.99375800  1
  Tl  Tl3  1  0.37236200  0.74708400  0.48654900  1
  Tl  Tl4  1  0.17936200  0.30503100  0.26056800  1
  Tl  Tl5  1  0.29634500  0.67609200  0.77051900  1
  Tl  Tl6  1  0.74708400  0.37236200  0.98654900  1
  Tl  Tl7  1  0.86932400  0.74932100  0.49375800  1
  Ga  Ga8  1  0.44417700  0.81659500  0.21350600  1
  Ga  Ga9  1  0.81725700  0.94415900  0.71391200  1
  Ga  Ga10  1  0.61693600  0.23658900  0.53888300  1
  Ga  Ga11  1  0.10848600  0.23719400  0.53770400  1
  Ga  Ga12  1  0.23719400  0.10848600  0.03770400  1
  Ga  Ga13  1  0.23658900  0.61693600  0.03888300  1
  Ga  Ga14  1  0.81659500  0.44417700  0.71350600  1
  Ga  Ga15  1  0.94415900  0.81725700  0.21391200  1
  Se  Se16  1  0.25955300  0.88625700  0.94135000  1
  Se  Se17  1  0.79155800  0.17066400  0.80798100  1
  Se  Se18  1  0.80076800  0.66951800  0.80891700  1
  Se  Se19  1  0.09837200  0.95340100  0.62455500  1
  Se  Se20  1  0.58027000  0.47804200  0.62482000  1
  Se  Se21  1  0.57971600  0.95267200  0.62595700  1
  Se  Se22  1  0.26555500  0.38708700  0.94592200  1
  Se  Se23  1  0.66951800  0.80076800  0.30891700  1
  Se  Se24  1  0.47742300  0.09803200  0.12419900  1
  Se  Se25  1  0.09803200  0.47742300  0.62419900  1
  Se  Se26  1  0.38708700  0.26555500  0.44592200  1
  Se  Se27  1  0.47804200  0.58027000  0.12482000  1
  Se  Se28  1  0.95340100  0.09837200  0.12455500  1
  Se  Se29  1  0.17066400  0.79155800  0.30798100  1
  Se  Se30  1  0.88625700  0.25955300  0.44135000  1
  Se  Se31  1  0.95267200  0.57971600  0.12595700  1
