# generated using pymatgen
data_La6Al3Fe11
_symmetry_space_group_name_H-M   'P 1'
_cell_length_a   8.15030600
_cell_length_b   8.15030600
_cell_length_c   13.25678280
_cell_angle_alpha   72.09730632
_cell_angle_beta   72.09730632
_cell_angle_gamma   90.00000000
_symmetry_Int_Tables_number   1
_chemical_formula_structural   La6Al3Fe11
_chemical_formula_sum   'La12 Al6 Fe22'
_cell_volume   793.04668990
_cell_formula_units_Z   2
loop_
 _symmetry_equiv_pos_site_id
 _symmetry_equiv_pos_as_xyz
  1  'x, y, z'
loop_
 _atom_site_type_symbol
 _atom_site_label
 _atom_site_symmetry_multiplicity
 _atom_site_fract_x
 _atom_site_fract_y
 _atom_site_fract_z
 _atom_site_occupancy
  La  La0  1  0.35852800  0.85852800  0.62194100  1
  La  La1  1  0.01953100  0.51953100  0.62194100  1
  La  La2  1  0.51953100  0.35852800  0.62194100  1
  La  La3  1  0.85852800  0.01953100  0.62194100  1
  La  La4  1  0.64737100  0.14737100  0.36955200  1
  La  La5  1  0.98307800  0.48307800  0.36955200  1
  La  La6  1  0.48307800  0.64737100  0.36955200  1
  La  La7  1  0.14737100  0.98307800  0.36955200  1
  La  La8  1  0.39465600  0.39465600  0.21068700  1
  La  La9  1  0.89465600  0.89465600  0.21068700  1
  La  La10  1  0.60584400  0.60584400  0.78831300  1
  La  La11  1  0.10584400  0.10584400  0.78831300  1
  Al  Al12  1  0.74976300  0.74976300  0.50047400  1
  Al  Al13  1  0.24976300  0.24976300  0.50047400  1
  Al  Al14  1  0.47320200  0.97320200  0.81744200  1
  Al  Al15  1  0.70935700  0.20935700  0.81744200  1
  Al  Al16  1  0.20935700  0.47320200  0.81744200  1
  Al  Al17  1  0.97320200  0.70935700  0.81744200  1
  Fe  Fe18  1  0.23088600  0.73088600  0.88977900  1
  Fe  Fe19  1  0.87933500  0.37933500  0.88977900  1
  Fe  Fe20  1  0.37933500  0.23088600  0.88977900  1
  Fe  Fe21  1  0.73088600  0.87933500  0.88977900  1
  Fe  Fe22  1  0.76388400  0.26388400  0.11518400  1
  Fe  Fe23  1  0.12093200  0.62093200  0.11518400  1
  Fe  Fe24  1  0.62093200  0.76388400  0.11518400  1
  Fe  Fe25  1  0.26388400  0.12093200  0.11518400  1
  Fe  Fe26  1  0.70994400  0.56823500  0.00120000  1
  Fe  Fe27  1  0.28885700  0.43056500  0.00120000  1
  Fe  Fe28  1  0.78885700  0.06823500  0.00120000  1
  Fe  Fe29  1  0.20994400  0.93056500  0.00120000  1
  Fe  Fe30  1  0.56823500  0.28885700  0.00120000  1
  Fe  Fe31  1  0.43056500  0.70994400  0.00120000  1
  Fe  Fe32  1  0.06823500  0.20994400  0.00120000  1
  Fe  Fe33  1  0.93056500  0.78885700  0.00120000  1
  Fe  Fe34  1  0.99906900  0.49906900  0.00186200  1
  Fe  Fe35  1  0.49906900  0.99906900  0.00186200  1
  Fe  Fe36  1  0.52168000  0.02168000  0.18303600  1
  Fe  Fe37  1  0.29528500  0.79528500  0.18303600  1
  Fe  Fe38  1  0.79528500  0.52168000  0.18303600  1
  Fe  Fe39  1  0.02168000  0.29528500  0.18303600  1
