# generated using pymatgen
data_CrFeO3
_symmetry_space_group_name_H-M   'P 1'
_cell_length_a   10.07227968
_cell_length_b   10.27270018
_cell_length_c   10.03446493
_cell_angle_alpha   90.90018226
_cell_angle_beta   97.93299696
_cell_angle_gamma   87.42766442
_symmetry_Int_Tables_number   1
_chemical_formula_structural   CrFeO3
_chemical_formula_sum   'Cr16 Fe16 O48'
_cell_volume   1027.24145060
_cell_formula_units_Z   16
loop_
 _symmetry_equiv_pos_site_id
 _symmetry_equiv_pos_as_xyz
  1  'x, y, z'
loop_
 _atom_site_type_symbol
 _atom_site_label
 _atom_site_symmetry_multiplicity
 _atom_site_fract_x
 _atom_site_fract_y
 _atom_site_fract_z
 _atom_site_occupancy
  Cr  Cr0  1  0.72936276  0.36448649  0.82071772  1
  Cr  Cr1  1  0.48287116  0.17383518  0.03613272  1
  Cr  Cr2  1  0.61305134  0.15226683  0.39026178  1
  Cr  Cr3  1  0.18243508  0.04229757  0.07630421  1
  Cr  Cr4  1  0.91078156  0.38300066  0.62750348  1
  Cr  Cr5  1  0.30921139  0.64373142  0.54027956  1
  Cr  Cr6  1  0.12937514  0.84433499  0.77817792  1
  Cr  Cr7  1  0.38187392  0.29956592  0.72256807  1
  Cr  Cr8  1  0.13312327  0.80945300  0.32801588  1
  Cr  Cr9  1  0.56453211  0.46507113  0.56331795  1
  Cr  Cr10  1  0.38843249  0.96857600  0.84667544  1
  Cr  Cr11  1  0.15572501  0.49951791  0.71996168  1
  Cr  Cr12  1  0.73053045  0.68357873  0.63674938  1
  Cr  Cr13  1  0.89664053  0.13086315  0.02070020  1
  Cr  Cr14  1  0.92501303  0.02719274  0.29295380  1
  Cr  Cr15  1  0.61570018  0.97601896  0.60894047  1
  Fe  Fe16  1  0.17369556  0.32216282  0.97063845  1
  Fe  Fe17  1  0.76847683  0.59294713  0.08469819  1
  Fe  Fe18  1  0.03747976  0.27619531  0.40034225  1
  Fe  Fe19  1  0.74804148  0.84478838  0.37235383  1
  Fe  Fe20  1  0.55896927  0.59437941  0.30622185  1
  Fe  Fe21  1  0.64682509  0.87914762  0.94617246  1
  Fe  Fe22  1  0.03163018  0.58589587  0.97660659  1
  Fe  Fe23  1  0.32307787  0.70642051  0.04137380  1
  Fe  Fe24  1  0.92648971  0.58674036  0.42030923  1
  Fe  Fe25  1  0.74590925  0.32074411  0.17546296  1
  Fe  Fe26  1  0.12396654  0.53538550  0.22699975  1
  Fe  Fe27  1  0.40320887  0.87693184  0.32724175  1
  Fe  Fe28  1  0.33851939  0.35136219  0.43699582  1
  Fe  Fe29  1  0.93032368  0.83136872  0.03218095  1
  Fe  Fe30  1  0.56234526  0.63700019  0.83159559  1
  Fe  Fe31  1  0.10236906  0.08373751  0.62205713  1
  O  O32  1  0.12944830  0.62907186  0.40334766  1
  O  O33  1  0.30241906  0.81018886  0.45392420  1
  O  O34  1  0.66735242  0.50760717  0.93534110  1
  O  O35  1  0.66245758  0.13136960  0.58372808  1
  O  O36  1  0.87822364  0.37821042  0.42785457  1
  O  O37  1  0.74409365  0.48692404  0.66311127  1
  O  O38  1  0.59615634  0.22453478  0.20045380  1
  O  O39  1  0.01147241  0.75259240  0.88434246  1
  O  O40  1  0.05257176  0.16474705  0.96016447  1
  O  O41  1  0.53178618  0.32087821  0.43286879  1
  O  O42  1  0.93702746  0.50433159  0.14012306  1
  O  O43  1  0.72101385  0.73529759  0.82912461  1
  O  O44  1  0.30049648  0.46065211  0.59875366  1
  O  O45  1  0.46234840  0.75770948  0.92150035  1
  O  O46  1  0.54503144  0.93973754  0.75684514  1
  O  O47  1  0.17175433  0.36277494  0.31795953  1
  O  O48  1  0.71778762  0.64619470  0.42948026  1
  O  O49  1  0.24419429  0.96484605  0.69436316  1
  O  O50  1  0.90872240  0.20533983  0.20398132  1
  O  O51  1  0.20865833  0.68685641  0.70803241  1
  O  O52  1  0.00220168  0.95451461  0.69976396  1
  O  O53  1  0.41668036  0.15865977  0.84215925  1
  O  O54  1  0.53865395  0.97585840  0.41956854  1
  O  O55  1  0.98476009  0.54880810  0.61291379  1
  O  O56  1  0.75289358  0.26174040  0.98636575  1
  O  O57  1  0.06380694  0.09075008  0.42733575  1
  O  O58  1  0.84447944  0.26333536  0.72758269  1
  O  O59  1  0.23131934  0.90841672  0.94284329  1
  O  O60  1  0.07151217  0.72693395  0.15184693  1
  O  O61  1  0.30369372  0.18625256  0.07751536  1
  O  O62  1  0.66783495  0.49440705  0.19996540  1
  O  O63  1  0.28833019  0.39191682  0.83721501  1
  O  O64  1  0.07492146  0.27850811  0.60807487  1
  O  O65  1  0.54710710  0.36893717  0.72601891  1
  O  O66  1  0.75213714  0.03625025  0.33126172  1
  O  O67  1  0.24449891  0.94675411  0.23847979  1
  O  O68  1  0.00792459  0.98776778  0.12086260  1
  O  O69  1  0.74592836  0.85617298  0.57889111  1
  O  O70  1  0.53035682  0.64389577  0.63719576  1
  O  O71  1  0.75997698  0.77809099  0.10216971  1
  O  O72  1  0.80295756  0.98716807  0.95223529  1
  O  O73  1  0.94727450  0.84526910  0.35306888  1
  O  O74  1  0.42171183  0.54228504  0.41251090  1
  O  O75  1  0.02936746  0.44262973  0.84597664  1
  O  O76  1  0.22479663  0.53506963  0.07456743  1
  O  O77  1  0.33489912  0.21279163  0.56514149  1
  O  O78  1  0.51573644  0.99163934  0.02022932  1
  O  O79  1  0.45746555  0.73340872  0.21809709  1
