# generated using pymatgen
data_Fe2SiO4
_symmetry_space_group_name_H-M   'P 1'
_cell_length_a   5.89029240
_cell_length_b   5.89031857
_cell_length_c   5.89031857
_cell_angle_alpha   89.84745699
_cell_angle_beta   60.09529791
_cell_angle_gamma   119.91896461
_symmetry_Int_Tables_number   1
_chemical_formula_structural   Fe2SiO4
_chemical_formula_sum   'Fe4 Si2 O8'
_cell_volume   144.70282379
_cell_formula_units_Z   2
loop_
 _symmetry_equiv_pos_site_id
 _symmetry_equiv_pos_as_xyz
  1  'x, y, z'
loop_
 _atom_site_type_symbol
 _atom_site_label
 _atom_site_symmetry_multiplicity
 _atom_site_fract_x
 _atom_site_fract_y
 _atom_site_fract_z
 _atom_site_occupancy
  Fe  Fe0  1  0.25000200  0.37500000  0.37499700  1
  Fe  Fe1  1  0.75000200  0.37500200  0.87500200  1
  Fe  Fe2  1  0.75000400  0.37500300  0.37500300  1
  Fe  Fe3  1  0.24999500  0.87500000  0.37500100  1
  Si  Si4  1  0.00000000  0.99998000  0.00001700  1
  Si  Si5  1  0.50000000  0.75001900  0.74998300  1
  O  O6  1  0.23139500  0.11576900  0.65284300  1
  O  O7  1  0.76860500  0.11576200  0.11562500  1
  O  O8  1  0.76864700  0.65291700  0.11573500  1
  O  O9  1  0.23134900  0.11561500  0.11573100  1
  O  O10  1  0.26860500  0.63423000  0.09715600  1
  O  O11  1  0.73139500  0.63423700  0.63437500  1
  O  O12  1  0.73135200  0.09708200  0.63426500  1
  O  O13  1  0.26865000  0.63438300  0.63426800  1
