# generated using pymatgen
data_MnCO3
_symmetry_space_group_name_H-M   'P 1'
_cell_length_a   4.86729591
_cell_length_b   6.19998399
_cell_length_c   7.70277245
_cell_angle_alpha   73.78829314
_cell_angle_beta   89.88513274
_cell_angle_gamma   89.53859001
_symmetry_Int_Tables_number   1
_chemical_formula_structural   MnCO3
_chemical_formula_sum   'Mn4 C4 O12'
_cell_volume   223.19762703
_cell_formula_units_Z   4
loop_
 _symmetry_equiv_pos_site_id
 _symmetry_equiv_pos_as_xyz
  1  'x, y, z'
loop_
 _atom_site_type_symbol
 _atom_site_label
 _atom_site_symmetry_multiplicity
 _atom_site_fract_x
 _atom_site_fract_y
 _atom_site_fract_z
 _atom_site_occupancy
  Mn  Mn0  1  0.31326100  0.24980800  0.50406200  1
  Mn  Mn1  1  0.68672100  0.75019700  0.99594000  1
  Mn  Mn2  1  0.31333900  0.24989400  0.00402200  1
  Mn  Mn3  1  0.68668800  0.75012800  0.49595500  1
  C  C4  1  0.81214700  0.24987800  0.25053800  1
  C  C5  1  0.81215100  0.24987500  0.75053500  1
  C  C6  1  0.18785500  0.75012300  0.24946600  1
  C  C7  1  0.18784900  0.75012100  0.74946600  1
  O  O8  1  0.07905800  0.24883900  0.25412400  1
  O  O9  1  0.07911600  0.24883600  0.75412500  1
  O  O10  1  0.92094000  0.75115900  0.24587600  1
  O  O11  1  0.92088100  0.75114400  0.74587800  1
  O  O12  1  0.67393300  0.11595100  0.37983400  1
  O  O13  1  0.67392200  0.11595200  0.87986600  1
  O  O14  1  0.32606400  0.88405000  0.12017000  1
  O  O15  1  0.32607500  0.88404500  0.62013500  1
  O  O16  1  0.31938200  0.61561000  0.38312400  1
  O  O17  1  0.31940700  0.61562200  0.88316400  1
  O  O18  1  0.68061600  0.38439000  0.11688100  1
  O  O19  1  0.68059600  0.38437800  0.61684100  1
