# generated using pymatgen
data_Gd2Fe17H3
_symmetry_space_group_name_H-M   'P 1'
_cell_length_a   6.40569547
_cell_length_b   6.40569547
_cell_length_c   6.40569595
_cell_angle_alpha   84.29112483
_cell_angle_beta   84.29112483
_cell_angle_gamma   84.29112615
_symmetry_Int_Tables_number   1
_chemical_formula_structural   Gd2Fe17H3
_chemical_formula_sum   'Gd2 Fe17 H3'
_cell_volume   259.17633342
_cell_formula_units_Z   1
loop_
 _symmetry_equiv_pos_site_id
 _symmetry_equiv_pos_as_xyz
  1  'x, y, z'
loop_
 _atom_site_type_symbol
 _atom_site_label
 _atom_site_symmetry_multiplicity
 _atom_site_fract_x
 _atom_site_fract_y
 _atom_site_fract_z
 _atom_site_occupancy
  Gd  Gd0  1  0.65706800  0.65706800  0.65706800  1
  Gd  Gd1  1  0.34293200  0.34293200  0.34293200  1
  Fe  Fe2  1  0.00000000  0.00000000  0.50000000  1
  Fe  Fe3  1  0.00000000  0.50000000  0.00000000  1
  Fe  Fe4  1  0.50000000  0.00000000  0.00000000  1
  Fe  Fe5  1  0.28461300  0.71538700  0.00000000  1
  Fe  Fe6  1  0.71538700  0.00000000  0.28461300  1
  Fe  Fe7  1  0.00000000  0.28461300  0.71538700  1
  Fe  Fe8  1  0.28461300  0.00000000  0.71538700  1
  Fe  Fe9  1  0.00000000  0.71538700  0.28461300  1
  Fe  Fe10  1  0.71538700  0.28461300  0.00000000  1
  Fe  Fe11  1  0.34245700  0.34245700  0.84670400  1
  Fe  Fe12  1  0.34245700  0.84670400  0.34245700  1
  Fe  Fe13  1  0.84670400  0.34245700  0.34245700  1
  Fe  Fe14  1  0.65754300  0.65754300  0.15329600  1
  Fe  Fe15  1  0.65754300  0.15329600  0.65754300  1
  Fe  Fe16  1  0.15329600  0.65754300  0.65754300  1
  Fe  Fe17  1  0.90216600  0.90216600  0.90216600  1
  Fe  Fe18  1  0.09783400  0.09783400  0.09783400  1
  H  H19  1  0.50000000  0.50000000  0.00000000  1
  H  H20  1  0.50000000  0.00000000  0.50000000  1
  H  H21  1  0.00000000  0.50000000  0.50000000  1
