# generated using pymatgen
data_BaYb2O4
_symmetry_space_group_name_H-M   'P 1'
_cell_length_a   3.54447900
_cell_length_b   10.37406600
_cell_length_c   12.11522300
_cell_angle_alpha   90.00000000
_cell_angle_beta   90.00000000
_cell_angle_gamma   90.00000000
_symmetry_Int_Tables_number   1
_chemical_formula_structural   BaYb2O4
_chemical_formula_sum   'Ba4 Yb8 O16'
_cell_volume   445.48473463
_cell_formula_units_Z   4
loop_
 _symmetry_equiv_pos_site_id
 _symmetry_equiv_pos_as_xyz
  1  'x, y, z'
loop_
 _atom_site_type_symbol
 _atom_site_label
 _atom_site_symmetry_multiplicity
 _atom_site_fract_x
 _atom_site_fract_y
 _atom_site_fract_z
 _atom_site_occupancy
  Ba  Ba0  1  0.25000000  0.74844700  0.65410300  1
  Ba  Ba1  1  0.75000000  0.75155300  0.15410300  1
  Ba  Ba2  1  0.25000000  0.24844700  0.84589700  1
  Ba  Ba3  1  0.75000000  0.25155300  0.34589700  1
  Yb  Yb4  1  0.25000000  0.57796400  0.39120200  1
  Yb  Yb5  1  0.25000000  0.57896400  0.89237200  1
  Yb  Yb6  1  0.75000000  0.92103600  0.39237200  1
  Yb  Yb7  1  0.75000000  0.92203600  0.89120200  1
  Yb  Yb8  1  0.25000000  0.07796400  0.10879800  1
  Yb  Yb9  1  0.25000000  0.07896400  0.60762800  1
  Yb  Yb10  1  0.75000000  0.42103600  0.10762800  1
  Yb  Yb11  1  0.75000000  0.42203600  0.60879800  1
  O  O12  1  0.75000000  0.51620600  0.27796800  1
  O  O13  1  0.25000000  0.56992300  0.08036000  1
  O  O14  1  0.75000000  0.61846900  0.51756400  1
  O  O15  1  0.75000000  0.71333200  0.83331400  1
  O  O16  1  0.25000000  0.78666800  0.33331400  1
  O  O17  1  0.25000000  0.88153100  0.01756400  1
  O  O18  1  0.75000000  0.93007700  0.58036000  1
  O  O19  1  0.25000000  0.98379400  0.77796800  1
  O  O20  1  0.75000000  0.01620600  0.22203200  1
  O  O21  1  0.25000000  0.06992300  0.41964000  1
  O  O22  1  0.75000000  0.11846900  0.98243600  1
  O  O23  1  0.75000000  0.21333200  0.66668600  1
  O  O24  1  0.25000000  0.28666800  0.16668600  1
  O  O25  1  0.25000000  0.38153100  0.48243600  1
  O  O26  1  0.75000000  0.43007700  0.91964000  1
  O  O27  1  0.25000000  0.48379400  0.72203200  1
