# generated using pymatgen
data_Er6Al43Mo4
_symmetry_space_group_name_H-M   'P 1'
_cell_length_a   11.04262991
_cell_length_b   11.04262991
_cell_length_c   17.61554300
_cell_angle_alpha   90.00000000
_cell_angle_beta   90.00000000
_cell_angle_gamma   119.99999946
_symmetry_Int_Tables_number   1
_chemical_formula_structural   Er6Al43Mo4
_chemical_formula_sum   'Er12 Al86 Mo8'
_cell_volume   1860.25167071
_cell_formula_units_Z   2
loop_
 _symmetry_equiv_pos_site_id
 _symmetry_equiv_pos_as_xyz
  1  'x, y, z'
loop_
 _atom_site_type_symbol
 _atom_site_label
 _atom_site_symmetry_multiplicity
 _atom_site_fract_x
 _atom_site_fract_y
 _atom_site_fract_z
 _atom_site_occupancy
  Er  Er0  1  0.46898200  0.46898200  0.90472400  1
  Er  Er1  1  0.53101800  0.00000000  0.90472400  1
  Er  Er2  1  0.00000000  0.53101800  0.90472400  1
  Er  Er3  1  0.53101800  0.53101800  0.09527600  1
  Er  Er4  1  0.46898200  0.00000000  0.09527600  1
  Er  Er5  1  0.00000000  0.46898200  0.09527600  1
  Er  Er6  1  0.53101800  0.53101800  0.40472400  1
  Er  Er7  1  0.46898200  0.00000000  0.40472400  1
  Er  Er8  1  0.00000000  0.46898200  0.40472400  1
  Er  Er9  1  0.46898200  0.46898200  0.59527600  1
  Er  Er10  1  0.53101800  0.00000000  0.59527600  1
  Er  Er11  1  0.00000000  0.53101800  0.59527600  1
  Al  Al12  1  0.84180600  0.23659100  0.83670200  1
  Al  Al13  1  0.76340900  0.60521500  0.83670200  1
  Al  Al14  1  0.39478500  0.15819400  0.83670200  1
  Al  Al15  1  0.23659100  0.84180600  0.83670200  1
  Al  Al16  1  0.60521500  0.76340900  0.83670200  1
  Al  Al17  1  0.15819400  0.39478500  0.83670200  1
  Al  Al18  1  0.15819400  0.76340900  0.16329800  1
  Al  Al19  1  0.23659100  0.39478500  0.16329800  1
  Al  Al20  1  0.60521500  0.84180600  0.16329800  1
  Al  Al21  1  0.76340900  0.15819400  0.16329800  1
  Al  Al22  1  0.39478500  0.23659100  0.16329800  1
  Al  Al23  1  0.84180600  0.60521500  0.16329800  1
  Al  Al24  1  0.15819400  0.76340900  0.33670200  1
  Al  Al25  1  0.23659100  0.39478500  0.33670200  1
  Al  Al26  1  0.60521500  0.84180600  0.33670200  1
  Al  Al27  1  0.76340900  0.15819400  0.33670200  1
  Al  Al28  1  0.39478500  0.23659100  0.33670200  1
  Al  Al29  1  0.84180600  0.60521500  0.33670200  1
  Al  Al30  1  0.84180600  0.23659100  0.66329800  1
  Al  Al31  1  0.76340900  0.60521500  0.66329800  1
  Al  Al32  1  0.39478500  0.15819400  0.66329800  1
  Al  Al33  1  0.23659100  0.84180600  0.66329800  1
  Al  Al34  1  0.60521500  0.76340900  0.66329800  1
  Al  Al35  1  0.15819400  0.39478500  0.66329800  1
  Al  Al36  1  0.84052300  0.84052300  0.38549400  1
  Al  Al37  1  0.15947700  0.00000000  0.38549400  1
  Al  Al38  1  0.00000000  0.15947700  0.38549400  1
  Al  Al39  1  0.15947700  0.15947700  0.61450600  1
  Al  Al40  1  0.84052300  0.00000000  0.61450600  1
  Al  Al41  1  0.00000000  0.84052300  0.61450600  1
  Al  Al42  1  0.15947700  0.15947700  0.88549400  1
  Al  Al43  1  0.84052300  0.00000000  0.88549400  1
  Al  Al44  1  0.00000000  0.84052300  0.88549400  1
  Al  Al45  1  0.84052300  0.84052300  0.11450600  1
  Al  Al46  1  0.15947700  0.00000000  0.11450600  1
  Al  Al47  1  0.00000000  0.15947700  0.11450600  1
  Al  Al48  1  0.74546600  0.74546600  0.96968000  1
  Al  Al49  1  0.25453400  0.00000000  0.96968000  1
  Al  Al50  1  0.00000000  0.25453400  0.96968000  1
  Al  Al51  1  0.25453400  0.25453400  0.03032000  1
  Al  Al52  1  0.74546600  0.00000000  0.03032000  1
  Al  Al53  1  0.00000000  0.74546600  0.03032000  1
  Al  Al54  1  0.25453400  0.25453400  0.46968000  1
  Al  Al55  1  0.74546600  0.00000000  0.46968000  1
  Al  Al56  1  0.00000000  0.74546600  0.46968000  1
  Al  Al57  1  0.74546600  0.74546600  0.53032000  1
  Al  Al58  1  0.25453400  0.00000000  0.53032000  1
  Al  Al59  1  0.00000000  0.25453400  0.53032000  1
  Al  Al60  1  0.85290100  0.44892900  0.75000000  1
  Al  Al61  1  0.55107100  0.40397200  0.75000000  1
  Al  Al62  1  0.59602800  0.14709900  0.75000000  1
  Al  Al63  1  0.44892900  0.85290100  0.75000000  1
  Al  Al64  1  0.40397200  0.55107100  0.75000000  1
  Al  Al65  1  0.14709900  0.59602800  0.75000000  1
  Al  Al66  1  0.14709900  0.55107100  0.25000000  1
  Al  Al67  1  0.44892900  0.59602800  0.25000000  1
  Al  Al68  1  0.40397200  0.85290100  0.25000000  1
  Al  Al69  1  0.55107100  0.14709900  0.25000000  1
  Al  Al70  1  0.59602800  0.44892900  0.25000000  1
  Al  Al71  1  0.85290100  0.40397200  0.25000000  1
  Al  Al72  1  0.75294800  0.24705200  0.00000000  1
  Al  Al73  1  0.75294800  0.50589500  0.00000000  1
  Al  Al74  1  0.49410500  0.24705200  0.00000000  1
  Al  Al75  1  0.24705200  0.75294800  0.00000000  1
  Al  Al76  1  0.50589500  0.75294800  0.00000000  1
  Al  Al77  1  0.24705200  0.49410500  0.00000000  1
  Al  Al78  1  0.24705200  0.75294800  0.50000000  1
  Al  Al79  1  0.24705200  0.49410500  0.50000000  1
  Al  Al80  1  0.50589500  0.75294800  0.50000000  1
  Al  Al81  1  0.75294800  0.24705200  0.50000000  1
  Al  Al82  1  0.49410500  0.24705200  0.50000000  1
  Al  Al83  1  0.75294800  0.50589500  0.50000000  1
  Al  Al84  1  0.66666700  0.33333300  0.87391500  1
  Al  Al85  1  0.33333300  0.66666700  0.87391500  1
  Al  Al86  1  0.33333300  0.66666700  0.12608500  1
  Al  Al87  1  0.66666700  0.33333300  0.12608500  1
  Al  Al88  1  0.33333300  0.66666700  0.37391500  1
  Al  Al89  1  0.66666700  0.33333300  0.37391500  1
  Al  Al90  1  0.66666700  0.33333300  0.62608500  1
  Al  Al91  1  0.33333300  0.66666700  0.62608500  1
  Al  Al92  1  0.85260500  0.85260500  0.75000000  1
  Al  Al93  1  0.14739500  0.00000000  0.75000000  1
  Al  Al94  1  0.00000000  0.14739500  0.75000000  1
  Al  Al95  1  0.14739500  0.14739500  0.25000000  1
  Al  Al96  1  0.85260500  0.00000000  0.25000000  1
  Al  Al97  1  0.00000000  0.85260500  0.25000000  1
  Mo  Mo98  1  0.27048700  0.27048700  0.75000000  1
  Mo  Mo99  1  0.72951300  0.00000000  0.75000000  1
  Mo  Mo100  1  0.00000000  0.72951300  0.75000000  1
  Mo  Mo101  1  0.72951300  0.72951300  0.25000000  1
  Mo  Mo102  1  0.27048700  0.00000000  0.25000000  1
  Mo  Mo103  1  0.00000000  0.27048700  0.25000000  1
  Mo  Mo104  1  0.00000000  0.00000000  0.00000000  1
  Mo  Mo105  1  0.00000000  0.00000000  0.50000000  1
