# generated using pymatgen
data_LaMn2O5
_symmetry_space_group_name_H-M   'P 1'
_cell_length_a   5.84352800
_cell_length_b   7.74964200
_cell_length_c   8.79738000
_cell_angle_alpha   90.00000000
_cell_angle_beta   90.00000000
_cell_angle_gamma   90.00000000
_symmetry_Int_Tables_number   1
_chemical_formula_structural   LaMn2O5
_chemical_formula_sum   'La4 Mn8 O20'
_cell_volume   398.39155279
_cell_formula_units_Z   4
loop_
 _symmetry_equiv_pos_site_id
 _symmetry_equiv_pos_as_xyz
  1  'x, y, z'
loop_
 _atom_site_type_symbol
 _atom_site_label
 _atom_site_symmetry_multiplicity
 _atom_site_fract_x
 _atom_site_fract_y
 _atom_site_fract_z
 _atom_site_occupancy
  La  La0  1  0.00000000  0.35426400  0.67280000  1
  La  La1  1  0.00000000  0.64573600  0.32720000  1
  La  La2  1  0.00000000  0.85426400  0.82720000  1
  La  La3  1  0.00000000  0.14573600  0.17280000  1
  Mn  Mn4  1  0.50000000  0.08996200  0.85131300  1
  Mn  Mn5  1  0.50000000  0.91003800  0.14868700  1
  Mn  Mn6  1  0.50000000  0.58996200  0.64868700  1
  Mn  Mn7  1  0.50000000  0.41003800  0.35131300  1
  Mn  Mn8  1  0.25827300  0.50000000  0.00000000  1
  Mn  Mn9  1  0.74172700  0.00000000  0.50000000  1
  Mn  Mn10  1  0.74172700  0.50000000  0.00000000  1
  Mn  Mn11  1  0.25827300  0.00000000  0.50000000  1
  O  O12  1  0.24980300  0.90391000  0.29342100  1
  O  O13  1  0.24980300  0.09609000  0.70657900  1
  O  O14  1  0.75019700  0.40391000  0.20657900  1
  O  O15  1  0.75019700  0.59609000  0.79342100  1
  O  O16  1  0.75019700  0.09609000  0.70657900  1
  O  O17  1  0.75019700  0.90391000  0.29342100  1
  O  O18  1  0.24980300  0.59609000  0.79342100  1
  O  O19  1  0.24980300  0.40391000  0.20657900  1
  O  O20  1  0.50000000  0.34815100  0.93749300  1
  O  O21  1  0.50000000  0.65184900  0.06250700  1
  O  O22  1  0.50000000  0.84815100  0.56250700  1
  O  O23  1  0.50000000  0.15184900  0.43749300  1
  O  O24  1  0.27887500  0.00000000  0.00000000  1
  O  O25  1  0.72112500  0.50000000  0.50000000  1
  O  O26  1  0.72112500  0.00000000  0.00000000  1
  O  O27  1  0.27887500  0.50000000  0.50000000  1
  O  O28  1  0.00000000  0.15458400  0.44883800  1
  O  O29  1  0.00000000  0.84541600  0.55116200  1
  O  O30  1  0.00000000  0.65458400  0.05116200  1
  O  O31  1  0.00000000  0.34541600  0.94883800  1
