# generated using pymatgen
data_Tb2Fe17
_symmetry_space_group_name_H-M   'P 1'
_cell_length_a   8.24966400
_cell_length_b   8.47918515
_cell_length_c   8.47918515
_cell_angle_alpha   119.97090323
_cell_angle_beta   90.00000000
_cell_angle_gamma   90.00000000
_symmetry_Int_Tables_number   1
_chemical_formula_structural   Tb2Fe17
_chemical_formula_sum   'Tb4 Fe34'
_cell_volume   513.80980662
_cell_formula_units_Z   2
loop_
 _symmetry_equiv_pos_site_id
 _symmetry_equiv_pos_as_xyz
  1  'x, y, z'
loop_
 _atom_site_type_symbol
 _atom_site_label
 _atom_site_symmetry_multiplicity
 _atom_site_fract_x
 _atom_site_fract_y
 _atom_site_fract_z
 _atom_site_occupancy
  Tb  Tb0  1  0.75000000  0.00002300  0.99997700  1
  Tb  Tb1  1  0.25000000  0.99997700  0.00002300  1
  Tb  Tb2  1  0.25000000  0.66659700  0.33340300  1
  Tb  Tb3  1  0.75000000  0.33340300  0.66659700  1
  Fe  Fe4  1  0.60676800  0.66666200  0.33333800  1
  Fe  Fe5  1  0.39323200  0.33333800  0.66666200  1
  Fe  Fe6  1  0.10676800  0.33333800  0.66666200  1
  Fe  Fe7  1  0.89323200  0.66666200  0.33333800  1
  Fe  Fe8  1  0.50000000  0.50000000  0.00000000  1
  Fe  Fe9  1  0.50000000  0.50000000  0.50000000  1
  Fe  Fe10  1  0.50000000  0.00000000  0.50000000  1
  Fe  Fe11  1  0.00000000  0.50000000  0.00000000  1
  Fe  Fe12  1  0.00000000  0.50000000  0.50000000  1
  Fe  Fe13  1  0.00000000  0.00000000  0.50000000  1
  Fe  Fe14  1  0.75000000  0.67011200  0.03857700  1
  Fe  Fe15  1  0.75000000  0.36850200  0.32999300  1
  Fe  Fe16  1  0.75000000  0.96142000  0.63151400  1
  Fe  Fe17  1  0.75000000  0.36848600  0.03858000  1
  Fe  Fe18  1  0.75000000  0.96142300  0.32988800  1
  Fe  Fe19  1  0.75000000  0.67000600  0.63149800  1
  Fe  Fe20  1  0.25000000  0.32988800  0.96142300  1
  Fe  Fe21  1  0.25000000  0.63149800  0.67000600  1
  Fe  Fe22  1  0.25000000  0.03858000  0.36848600  1
  Fe  Fe23  1  0.25000000  0.63151400  0.96142000  1
  Fe  Fe24  1  0.25000000  0.03857700  0.67011200  1
  Fe  Fe25  1  0.25000000  0.32999300  0.36850200  1
  Fe  Fe26  1  0.48544400  0.83378900  0.66776100  1
  Fe  Fe27  1  0.48539100  0.83388000  0.16612000  1
  Fe  Fe28  1  0.48544400  0.33223900  0.16621100  1
  Fe  Fe29  1  0.51455600  0.16621100  0.33223900  1
  Fe  Fe30  1  0.51460900  0.16612000  0.83388000  1
  Fe  Fe31  1  0.51455600  0.66776100  0.83378900  1
  Fe  Fe32  1  0.98544400  0.16621100  0.33223900  1
  Fe  Fe33  1  0.98539100  0.16612000  0.83388000  1
  Fe  Fe34  1  0.98544400  0.66776100  0.83378900  1
  Fe  Fe35  1  0.01455600  0.83378900  0.66776100  1
  Fe  Fe36  1  0.01460900  0.83388000  0.16612000  1
  Fe  Fe37  1  0.01455600  0.33223900  0.16621100  1
