# generated using pymatgen
data_Mn2GeO4
_symmetry_space_group_name_H-M   'P 1'
_cell_length_a   3.01215400
_cell_length_b   5.34673600
_cell_length_c   9.41383000
_cell_angle_alpha   90.00000000
_cell_angle_beta   90.00000000
_cell_angle_gamma   90.00000000
_symmetry_Int_Tables_number   1
_chemical_formula_structural   Mn2GeO4
_chemical_formula_sum   'Mn4 Ge2 O8'
_cell_volume   151.61154176
_cell_formula_units_Z   2
loop_
 _symmetry_equiv_pos_site_id
 _symmetry_equiv_pos_as_xyz
  1  'x, y, z'
loop_
 _atom_site_type_symbol
 _atom_site_label
 _atom_site_symmetry_multiplicity
 _atom_site_fract_x
 _atom_site_fract_y
 _atom_site_fract_z
 _atom_site_occupancy
  Mn  Mn0  1  0.50000100  0.43646200  0.82329400  1
  Mn  Mn1  1  0.50000100  0.56353800  0.17670600  1
  Mn  Mn2  1  0.50000100  0.93646100  0.67670600  1
  Mn  Mn3  1  0.50000100  0.06353700  0.32329400  1
  Ge  Ge4  1  0.00000000  0.49999900  0.50000100  1
  Ge  Ge5  1  0.00000000  0.00000000  0.00000000  1
  O  O6  1  0.00000000  0.13007300  0.81275700  1
  O  O7  1  0.00000000  0.86992600  0.18724300  1
  O  O8  1  0.00000000  0.63007400  0.68724300  1
  O  O9  1  0.00000000  0.36992700  0.31275700  1
  O  O10  1  0.50000100  0.26942200  0.54307300  1
  O  O11  1  0.50000100  0.73057800  0.45692700  1
  O  O12  1  0.50000100  0.23057700  0.04307400  1
  O  O13  1  0.50000100  0.76942100  0.95692700  1
