# generated using pymatgen
data_FeF3
_symmetry_space_group_name_H-M   'P 1'
_cell_length_a   5.46086379
_cell_length_b   5.46086379
_cell_length_c   5.46086302
_cell_angle_alpha   58.02587932
_cell_angle_beta   58.02587932
_cell_angle_gamma   58.02588208
_symmetry_Int_Tables_number   1
_chemical_formula_structural   FeF3
_chemical_formula_sum   'Fe2 F6'
_cell_volume   109.93754326
_cell_formula_units_Z   2
loop_
 _symmetry_equiv_pos_site_id
 _symmetry_equiv_pos_as_xyz
  1  'x, y, z'
loop_
 _atom_site_type_symbol
 _atom_site_label
 _atom_site_symmetry_multiplicity
 _atom_site_fract_x
 _atom_site_fract_y
 _atom_site_fract_z
 _atom_site_occupancy
  Fe  Fe0  1  0.50000000  0.50000000  0.50000000  1
  Fe  Fe1  1  0.00000000  0.00000000  0.00000000  1
  F  F2  1  0.25000000  0.66238300  0.83761700  1
  F  F3  1  0.83761700  0.25000000  0.66238300  1
  F  F4  1  0.66238300  0.83761700  0.25000000  1
  F  F5  1  0.75000000  0.33761700  0.16238300  1
  F  F6  1  0.16238300  0.75000000  0.33761700  1
  F  F7  1  0.33761700  0.16238300  0.75000000  1
