# generated using pymatgen
data_Sm12Al5Fe14
_symmetry_space_group_name_H-M   'P 1'
_cell_length_a   8.79784265
_cell_length_b   9.36363655
_cell_length_c   9.42718707
_cell_angle_alpha   119.80532831
_cell_angle_beta   89.55864383
_cell_angle_gamma   90.02236603
_symmetry_Int_Tables_number   1
_chemical_formula_structural   Sm12Al5Fe14
_chemical_formula_sum   'Sm12 Al5 Fe14'
_cell_volume   673.85397088
_cell_formula_units_Z   1
loop_
 _symmetry_equiv_pos_site_id
 _symmetry_equiv_pos_as_xyz
  1  'x, y, z'
loop_
 _atom_site_type_symbol
 _atom_site_label
 _atom_site_symmetry_multiplicity
 _atom_site_fract_x
 _atom_site_fract_y
 _atom_site_fract_z
 _atom_site_occupancy
  Sm  Sm0  1  0.12111035  0.34627415  0.17346313  1
  Sm  Sm1  1  0.12188865  0.82760259  0.17458115  1
  Sm  Sm2  1  0.12569815  0.82524847  0.65084358  1
  Sm  Sm3  1  0.87888965  0.65372585  0.82653687  1
  Sm  Sm4  1  0.87811135  0.17239741  0.82541885  1
  Sm  Sm5  1  0.87430185  0.17475153  0.34915642  1
  Sm  Sm6  1  0.66704876  0.54246066  0.46198787  1
  Sm  Sm7  1  0.66695871  0.53821408  0.07841271  1
  Sm  Sm8  1  0.66654620  0.92052950  0.45768843  1
  Sm  Sm9  1  0.33295124  0.45753934  0.53801213  1
  Sm  Sm10  1  0.33304129  0.46178592  0.92158729  1
  Sm  Sm11  1  0.33345380  0.07947050  0.54231157  1
  Al  Al12  1  0.38754122  0.66511216  0.33108068  1
  Al  Al13  1  0.61245878  0.33488784  0.66891932  1
  Al  Al14  1  -0.00000000  0.50000000  0.50000000  1
  Al  Al15  1  -0.00000000  0.50000000  -0.00000000  1
  Al  Al16  1  -0.00000000  0.00000000  0.50000000  1
  Fe  Fe17  1  0.50000000  0.00000000  -0.00000000  1
  Fe  Fe18  1  0.46680969  0.31304309  0.15778338  1
  Fe  Fe19  1  0.46662436  0.84327223  0.15461493  1
  Fe  Fe20  1  0.46594530  0.84336202  0.68643243  1
  Fe  Fe21  1  0.53319031  0.68695691  0.84221662  1
  Fe  Fe22  1  0.53337564  0.15672777  0.84538507  1
  Fe  Fe23  1  0.53405470  0.15663798  0.31356757  1
  Fe  Fe24  1  -0.00000000  0.00000000  -0.00000000  1
  Fe  Fe25  1  0.28620583  0.09488528  0.18976138  1
  Fe  Fe26  1  0.28151072  0.81726046  0.90878476  1
  Fe  Fe27  1  0.28154934  0.09121640  0.90960492  1
  Fe  Fe28  1  0.71379417  0.90511472  0.81023862  1
  Fe  Fe29  1  0.71848928  0.18273954  0.09121524  1
  Fe  Fe30  1  0.71845066  0.90878360  0.09039508  1
