# generated using pymatgen
data_Y2Fe17H3
_symmetry_space_group_name_H-M   'P 1'
_cell_length_a   8.24171300
_cell_length_b   8.54824447
_cell_length_c   8.54824447
_cell_angle_alpha   120.00000361
_cell_angle_beta   90.00000000
_cell_angle_gamma   90.00000000
_symmetry_Int_Tables_number   1
_chemical_formula_structural   Y2Fe17H3
_chemical_formula_sum   'Y4 Fe34 H6'
_cell_volume   521.55723056
_cell_formula_units_Z   2
loop_
 _symmetry_equiv_pos_site_id
 _symmetry_equiv_pos_as_xyz
  1  'x, y, z'
loop_
 _atom_site_type_symbol
 _atom_site_label
 _atom_site_symmetry_multiplicity
 _atom_site_fract_x
 _atom_site_fract_y
 _atom_site_fract_z
 _atom_site_occupancy
  Y  Y0  1  0.75000000  0.66666700  0.33333300  1
  Y  Y1  1  0.25000000  0.33333300  0.66666700  1
  Y  Y2  1  0.75000000  0.00000000  0.00000000  1
  Y  Y3  1  0.25000000  0.00000000  0.00000000  1
  Fe  Fe4  1  0.75000000  0.62328900  0.67087700  1
  Fe  Fe5  1  0.25000000  0.37671100  0.32912300  1
  Fe  Fe6  1  0.75000000  0.04758800  0.37671100  1
  Fe  Fe7  1  0.25000000  0.95241200  0.32912300  1
  Fe  Fe8  1  0.25000000  0.95241200  0.62328900  1
  Fe  Fe9  1  0.75000000  0.04758800  0.67087700  1
  Fe  Fe10  1  0.75000000  0.32912300  0.95241200  1
  Fe  Fe11  1  0.25000000  0.67087700  0.62328900  1
  Fe  Fe12  1  0.25000000  0.67087700  0.04758800  1
  Fe  Fe13  1  0.75000000  0.32912300  0.37671100  1
  Fe  Fe14  1  0.25000000  0.37671100  0.04758800  1
  Fe  Fe15  1  0.75000000  0.62328900  0.95241200  1
  Fe  Fe16  1  0.39448100  0.66666700  0.33333300  1
  Fe  Fe17  1  0.60551900  0.33333300  0.66666700  1
  Fe  Fe18  1  0.89448100  0.33333300  0.66666700  1
  Fe  Fe19  1  0.10551900  0.66666700  0.33333300  1
  Fe  Fe20  1  0.98443200  0.83312700  0.16687300  1
  Fe  Fe21  1  0.01556800  0.16687300  0.83312700  1
  Fe  Fe22  1  0.98443200  0.33374700  0.16687300  1
  Fe  Fe23  1  0.48443200  0.16687300  0.83312700  1
  Fe  Fe24  1  0.01556800  0.66625300  0.83312700  1
  Fe  Fe25  1  0.51556800  0.83312700  0.16687300  1
  Fe  Fe26  1  0.98443200  0.83312700  0.66625300  1
  Fe  Fe27  1  0.48443200  0.66625300  0.83312700  1
  Fe  Fe28  1  0.01556800  0.16687300  0.33374700  1
  Fe  Fe29  1  0.51556800  0.33374700  0.16687300  1
  Fe  Fe30  1  0.48443200  0.16687300  0.33374700  1
  Fe  Fe31  1  0.51556800  0.83312700  0.66625300  1
  Fe  Fe32  1  0.00000000  0.50000000  0.50000000  1
  Fe  Fe33  1  0.00000000  0.00000000  0.50000000  1
  Fe  Fe34  1  0.50000000  0.50000000  0.50000000  1
  Fe  Fe35  1  0.00000000  0.50000000  0.00000000  1
  Fe  Fe36  1  0.50000000  0.00000000  0.50000000  1
  Fe  Fe37  1  0.50000000  0.50000000  0.00000000  1
  H  H38  1  0.75000000  0.83521600  0.16478400  1
  H  H39  1  0.25000000  0.16478400  0.83521600  1
  H  H40  1  0.75000000  0.32956700  0.16478400  1
  H  H41  1  0.25000000  0.67043300  0.83521600  1
  H  H42  1  0.75000000  0.83521600  0.67043300  1
  H  H43  1  0.25000000  0.16478400  0.32956700  1
