# generated using pymatgen
data_Nb2Co4O9
_symmetry_space_group_name_H-M   'P 1'
_cell_length_a   5.21538870
_cell_length_b   5.22624763
_cell_length_c   14.31858748
_cell_angle_alpha   89.95136189
_cell_angle_beta   89.64674681
_cell_angle_gamma   59.95610690
_symmetry_Int_Tables_number   1
_chemical_formula_structural   Nb2Co4O9
_chemical_formula_sum   'Nb4 Co8 O18'
_cell_volume   337.83567753
_cell_formula_units_Z   2
loop_
 _symmetry_equiv_pos_site_id
 _symmetry_equiv_pos_as_xyz
  1  'x, y, z'
loop_
 _atom_site_type_symbol
 _atom_site_label
 _atom_site_symmetry_multiplicity
 _atom_site_fract_x
 _atom_site_fract_y
 _atom_site_fract_z
 _atom_site_occupancy
  Nb  Nb0  1  0.99679100  0.00106900  0.64159400  1
  Nb  Nb1  1  0.00346200  0.00118200  0.85751700  1
  Nb  Nb2  1  0.00236600  0.99724300  0.35877900  1
  Nb  Nb3  1  0.99803000  0.00242600  0.14295100  1
  Co  Co4  1  0.33486500  0.33466200  0.01537100  1
  Co  Co5  1  0.66921500  0.66639800  0.98490300  1
  Co  Co6  1  0.66631400  0.66749800  0.69445300  1
  Co  Co7  1  0.33126500  0.33415400  0.30545100  1
  Co  Co8  1  0.66629600  0.66840100  0.48778700  1
  Co  Co9  1  0.33256200  0.33286800  0.51404500  1
  Co  Co10  1  0.32876100  0.33608300  0.81039300  1
  Co  Co11  1  0.66305600  0.66345000  0.18845300  1
  O  O12  1  0.71127700  0.29104300  0.25046000  1
  O  O13  1  0.99686400  0.71103300  0.24947600  1
  O  O14  1  0.29069000  0.99921600  0.25013200  1
  O  O15  1  0.28838000  0.70936100  0.74945300  1
  O  O16  1  0.00145800  0.28769100  0.74940500  1
  O  O17  1  0.70516800  0.00260000  0.75055400  1
  O  O18  1  0.34284400  0.97759000  0.58367700  1
  O  O19  1  0.67807100  0.34310000  0.58329100  1
  O  O20  1  0.97711300  0.67825100  0.58414400  1
  O  O21  1  0.32201900  0.02136100  0.91706200  1
  O  O22  1  0.02556400  0.65369200  0.91504600  1
  O  O23  1  0.65930000  0.32197900  0.91592700  1
  O  O24  1  0.65816900  0.01972000  0.41650900  1
  O  O25  1  0.32359300  0.65513400  0.41602000  1
  O  O26  1  0.02198500  0.32124500  0.41588800  1
  O  O27  1  0.67961900  0.97978100  0.08351400  1
  O  O28  1  0.97871100  0.34323300  0.08344600  1
  O  O29  1  0.34619200  0.67853700  0.08429900  1
