# generated using pymatgen
data_CaFe(SiO3)2
_symmetry_space_group_name_H-M   'P 1'
_cell_length_a   5.47404700
_cell_length_b   9.84924100
_cell_length_c   19.04748300
_cell_angle_alpha   90.00000000
_cell_angle_beta   90.00000000
_cell_angle_gamma   90.00000000
_symmetry_Int_Tables_number   1
_chemical_formula_structural   CaFe(SiO3)2
_chemical_formula_sum   'Ca8 Fe8 Si16 O48'
_cell_volume   1026.94901065
_cell_formula_units_Z   8
loop_
 _symmetry_equiv_pos_site_id
 _symmetry_equiv_pos_as_xyz
  1  'x, y, z'
loop_
 _atom_site_type_symbol
 _atom_site_label
 _atom_site_symmetry_multiplicity
 _atom_site_fract_x
 _atom_site_fract_y
 _atom_site_fract_z
 _atom_site_occupancy
  Ca  Ca0  1  0.60932400  0.14470600  0.37809300  1
  Ca  Ca1  1  0.39067600  0.85529400  0.62190700  1
  Ca  Ca2  1  0.60932400  0.64470600  0.12190700  1
  Ca  Ca3  1  0.10932400  0.85529400  0.12190700  1
  Ca  Ca4  1  0.89067600  0.14470600  0.87809300  1
  Ca  Ca5  1  0.39067600  0.35529400  0.87809300  1
  Ca  Ca6  1  0.10932400  0.35529400  0.37809300  1
  Ca  Ca7  1  0.89067600  0.64470600  0.62190700  1
  Fe  Fe8  1  0.38643000  0.99474900  0.87312000  1
  Fe  Fe9  1  0.61357000  0.00525100  0.12688000  1
  Fe  Fe10  1  0.88643000  0.00525100  0.62688000  1
  Fe  Fe11  1  0.11357000  0.99474900  0.37312000  1
  Fe  Fe12  1  0.38643000  0.49474900  0.62688000  1
  Fe  Fe13  1  0.61357000  0.50525100  0.37312000  1
  Fe  Fe14  1  0.88643000  0.50525100  0.87312000  1
  Fe  Fe15  1  0.11357000  0.49474900  0.12688000  1
  Si  Si16  1  0.56328100  0.66701300  0.77432800  1
  Si  Si17  1  0.74714800  0.83037700  0.47421600  1
  Si  Si18  1  0.75285200  0.83037700  0.97421600  1
  Si  Si19  1  0.93671900  0.16701300  0.22567200  1
  Si  Si20  1  0.06328100  0.33298700  0.72567200  1
  Si  Si21  1  0.43671900  0.83298700  0.27432800  1
  Si  Si22  1  0.24714800  0.66962300  0.47421600  1
  Si  Si23  1  0.74714800  0.33037700  0.02578400  1
  Si  Si24  1  0.75285200  0.33037700  0.52578400  1
  Si  Si25  1  0.93671900  0.66701300  0.27432800  1
  Si  Si26  1  0.43671900  0.33298700  0.22567200  1
  Si  Si27  1  0.56328100  0.16701300  0.72567200  1
  Si  Si28  1  0.25285200  0.16962300  0.52578400  1
  Si  Si29  1  0.06328100  0.83298700  0.77432800  1
  Si  Si30  1  0.25285200  0.66962300  0.97421600  1
  Si  Si31  1  0.24714800  0.16962300  0.02578400  1
  O  O32  1  0.91494200  0.52229500  0.31525200  1
  O  O33  1  0.31604300  0.03414200  0.07005500  1
  O  O34  1  0.08505800  0.47770500  0.68474800  1
  O  O35  1  0.75094000  0.34543800  0.94009600  1
  O  O36  1  0.25094000  0.15456200  0.94009600  1
  O  O37  1  0.95989300  0.21423900  0.04643700  1
  O  O38  1  0.95250900  0.65717300  0.18875600  1
  O  O39  1  0.04749100  0.84282700  0.68875600  1
  O  O40  1  0.75094000  0.84543800  0.55990400  1
  O  O41  1  0.95250900  0.15717300  0.31124400  1
  O  O42  1  0.41494200  0.47770500  0.18474800  1
  O  O43  1  0.74906000  0.34543800  0.44009600  1
  O  O44  1  0.68395700  0.96585800  0.92994500  1
  O  O45  1  0.45250900  0.84282700  0.18875600  1
  O  O46  1  0.58505800  0.02229500  0.68474800  1
  O  O47  1  0.31604300  0.53414200  0.42994500  1
  O  O48  1  0.41494200  0.97770500  0.31525200  1
  O  O49  1  0.17999500  0.75446100  0.29978600  1
  O  O50  1  0.32000500  0.75446100  0.79978600  1
  O  O51  1  0.54010700  0.71423900  0.95356300  1
  O  O52  1  0.74906000  0.84543800  0.05990400  1
  O  O53  1  0.54749100  0.65717300  0.68875600  1
  O  O54  1  0.81604300  0.46585800  0.07005500  1
  O  O55  1  0.17999500  0.25446100  0.20021400  1
  O  O56  1  0.24906000  0.15456200  0.44009600  1
  O  O57  1  0.54749100  0.15717300  0.81124400  1
  O  O58  1  0.68395700  0.46585800  0.57005500  1
  O  O59  1  0.25094000  0.65456200  0.55990400  1
  O  O60  1  0.18395700  0.53414200  0.92994500  1
  O  O61  1  0.67999500  0.74553900  0.29978600  1
  O  O62  1  0.08505800  0.97770500  0.81525200  1
  O  O63  1  0.82000500  0.74553900  0.79978600  1
  O  O64  1  0.82000500  0.24553900  0.70021400  1
  O  O65  1  0.81604300  0.96585800  0.42994500  1
  O  O66  1  0.24906000  0.65456200  0.05990400  1
  O  O67  1  0.18395700  0.03414200  0.57005500  1
  O  O68  1  0.32000500  0.25446100  0.70021400  1
  O  O69  1  0.04010700  0.78576100  0.95356300  1
  O  O70  1  0.45989300  0.78576100  0.45356300  1
  O  O71  1  0.67999500  0.24553900  0.20021400  1
  O  O72  1  0.45989300  0.28576100  0.04643700  1
  O  O73  1  0.54010700  0.21423900  0.54643700  1
  O  O74  1  0.04010700  0.28576100  0.54643700  1
  O  O75  1  0.45250900  0.34282700  0.31124400  1
  O  O76  1  0.58505800  0.52229500  0.81525200  1
  O  O77  1  0.95989300  0.71423900  0.45356300  1
  O  O78  1  0.04749100  0.34282700  0.81124400  1
  O  O79  1  0.91494200  0.02229500  0.18474800  1
