# generated using pymatgen
data_Sr4Ru3O10
_symmetry_space_group_name_H-M   'P 1'
_cell_length_a   14.73208589
_cell_length_b   14.73208589
_cell_length_c   5.58376100
_cell_angle_alpha   90.00000000
_cell_angle_beta   90.00000000
_cell_angle_gamma   158.15048447
_symmetry_Int_Tables_number   1
_chemical_formula_structural   Sr4Ru3O10
_chemical_formula_sum   'Sr8 Ru6 O20'
_cell_volume   451.02102480
_cell_formula_units_Z   2
loop_
 _symmetry_equiv_pos_site_id
 _symmetry_equiv_pos_as_xyz
  1  'x, y, z'
loop_
 _atom_site_type_symbol
 _atom_site_label
 _atom_site_symmetry_multiplicity
 _atom_site_fract_x
 _atom_site_fract_y
 _atom_site_fract_z
 _atom_site_occupancy
  Sr  Sr0  1  0.70370400  0.29629600  0.00000000  1
  Sr  Sr1  1  0.20370400  0.79629600  0.50000000  1
  Sr  Sr2  1  0.42989600  0.57010400  0.00000000  1
  Sr  Sr3  1  0.07010400  0.92989600  0.50000000  1
  Sr  Sr4  1  0.57010400  0.42989600  0.00000000  1
  Sr  Sr5  1  0.29629600  0.70370400  0.00000000  1
  Sr  Sr6  1  0.79629600  0.20370400  0.50000000  1
  Sr  Sr7  1  0.92989600  0.07010400  0.50000000  1
  Ru  Ru8  1  0.85958400  0.14041600  0.00000000  1
  Ru  Ru9  1  0.64041600  0.35958400  0.50000000  1
  Ru  Ru10  1  0.50000000  0.50000000  0.50000000  1
  Ru  Ru11  1  0.14041600  0.85958400  0.00000000  1
  Ru  Ru12  1  0.35958400  0.64041600  0.50000000  1
  Ru  Ru13  1  0.00000000  0.00000000  0.00000000  1
  O  O14  1  0.80199800  0.80199800  0.69801000  1
  O  O15  1  0.57732500  0.85619600  0.78321500  1
  O  O16  1  0.21084600  0.78915400  0.00000000  1
  O  O17  1  0.42267500  0.14380400  0.21678500  1
  O  O18  1  0.69800200  0.69800200  0.19801000  1
  O  O19  1  0.14380400  0.42267500  0.21678500  1
  O  O20  1  0.06901400  0.93098600  0.00000000  1
  O  O21  1  0.28915400  0.71084600  0.50000000  1
  O  O22  1  0.93098600  0.06901400  0.00000000  1
  O  O23  1  0.30199800  0.30199800  0.80199000  1
  O  O24  1  0.35619600  0.07732500  0.71678500  1
  O  O25  1  0.78915400  0.21084600  0.00000000  1
  O  O26  1  0.92267500  0.64380400  0.28321500  1
  O  O27  1  0.07732500  0.35619600  0.71678500  1
  O  O28  1  0.43098600  0.56901400  0.50000000  1
  O  O29  1  0.19800200  0.19800200  0.30199000  1
  O  O30  1  0.71084600  0.28915400  0.50000000  1
  O  O31  1  0.64380400  0.92267500  0.28321500  1
  O  O32  1  0.56901400  0.43098600  0.50000000  1
  O  O33  1  0.85619600  0.57732500  0.78321500  1
