# generated using pymatgen
data_LaCI
_symmetry_space_group_name_H-M   'P 1'
_cell_length_a   4.36004437
_cell_length_b   4.36004437
_cell_length_c   10.85700271
_cell_angle_alpha   86.86793070
_cell_angle_beta   86.86793070
_cell_angle_gamma   57.62836258
_symmetry_Int_Tables_number   1
_chemical_formula_structural   LaCI
_chemical_formula_sum   'La2 C2 I2'
_cell_volume   173.97756005
_cell_formula_units_Z   2
loop_
 _symmetry_equiv_pos_site_id
 _symmetry_equiv_pos_as_xyz
  1  'x, y, z'
loop_
 _atom_site_type_symbol
 _atom_site_label
 _atom_site_symmetry_multiplicity
 _atom_site_fract_x
 _atom_site_fract_y
 _atom_site_fract_z
 _atom_site_occupancy
  La  La0  1  0.85605300  0.85605300  0.13902500  1
  La  La1  1  0.14394700  0.14394700  0.86097500  1
  C  C2  1  0.57340700  0.57340700  0.02948100  1
  C  C3  1  0.42659300  0.42659300  0.97051900  1
  I  I4  1  0.82441100  0.82441100  0.65906000  1
  I  I5  1  0.17558900  0.17558900  0.34094000  1
