# generated using pymatgen
data_LuNiO3
_symmetry_space_group_name_H-M   'P 1'
_cell_length_a   5.52408700
_cell_length_b   5.13520100
_cell_length_c   8.97886931
_cell_angle_alpha   55.32949237
_cell_angle_beta   90.00000000
_cell_angle_gamma   90.00000000
_symmetry_Int_Tables_number   1
_chemical_formula_structural   LuNiO3
_chemical_formula_sum   'Lu4 Ni4 O12'
_cell_volume   209.47983717
_cell_formula_units_Z   4
loop_
 _symmetry_equiv_pos_site_id
 _symmetry_equiv_pos_as_xyz
  1  'x, y, z'
loop_
 _atom_site_type_symbol
 _atom_site_label
 _atom_site_symmetry_multiplicity
 _atom_site_fract_x
 _atom_site_fract_y
 _atom_site_fract_z
 _atom_site_occupancy
  Lu  Lu0  1  0.57899100  0.72656700  0.75126500  1
  Lu  Lu1  1  0.92100900  0.72656700  0.25126500  1
  Lu  Lu2  1  0.42100900  0.27343300  0.24873500  1
  Lu  Lu3  1  0.07899100  0.27343300  0.74873500  1
  Ni  Ni4  1  0.50000000  0.50000000  0.50000000  1
  Ni  Ni5  1  0.00000000  0.50000000  0.00000000  1
  Ni  Ni6  1  0.50000000  0.00000000  0.00000000  1
  Ni  Ni7  1  0.00000000  0.00000000  0.50000000  1
  O  O8  1  0.95952400  0.87100100  0.74471900  1
  O  O9  1  0.54047600  0.87100100  0.24471900  1
  O  O10  1  0.04047600  0.12899900  0.25528100  1
  O  O11  1  0.45952400  0.12899900  0.75528100  1
  O  O12  1  0.81386300  0.63945800  0.55514900  1
  O  O13  1  0.68613700  0.63945800  0.05514900  1
  O  O14  1  0.18613700  0.36054200  0.44485100  1
  O  O15  1  0.31386300  0.36054200  0.94485100  1
  O  O16  1  0.69851800  0.24346000  0.44038400  1
  O  O17  1  0.80148200  0.24346000  0.94038400  1
  O  O18  1  0.30148200  0.75654000  0.55961600  1
  O  O19  1  0.19851800  0.75654000  0.05961600  1
