# generated using pymatgen
data_CeFeAsO
_symmetry_space_group_name_H-M   'P 1'
_cell_length_a   3.99225600
_cell_length_b   3.99225600
_cell_length_c   9.04197100
_cell_angle_alpha   90.00000000
_cell_angle_beta   90.00000000
_cell_angle_gamma   90.00000000
_symmetry_Int_Tables_number   1
_chemical_formula_structural   CeFeAsO
_chemical_formula_sum   'Ce2 Fe2 As2 O2'
_cell_volume   144.11191006
_cell_formula_units_Z   2
loop_
 _symmetry_equiv_pos_site_id
 _symmetry_equiv_pos_as_xyz
  1  'x, y, z'
loop_
 _atom_site_type_symbol
 _atom_site_label
 _atom_site_symmetry_multiplicity
 _atom_site_fract_x
 _atom_site_fract_y
 _atom_site_fract_z
 _atom_site_occupancy
  Ce  Ce0  1  0.50000000  0.50000000  0.85806600  1
  Ce  Ce1  1  0.00000000  0.00000000  0.13217000  1
  Fe  Fe2  1  0.00000000  0.50000000  0.50231100  1
  Fe  Fe3  1  0.50000000  0.00000000  0.50231100  1
  As  As4  1  0.50000000  0.50000000  0.31544100  1
  As  As5  1  0.00000000  0.00000000  0.68877500  1
  O  O6  1  0.00000000  0.50000000  0.99655100  1
  O  O7  1  0.50000000  0.00000000  0.99655100  1
