# generated using pymatgen
data_ThSi2
_symmetry_space_group_name_H-M   'P 1'
_cell_length_a   7.81395529
_cell_length_b   7.81395529
_cell_length_c   7.81395529
_cell_angle_alpha   149.40372821
_cell_angle_beta   149.40372821
_cell_angle_gamma   43.81737544
_symmetry_Int_Tables_number   1
_chemical_formula_structural   ThSi2
_chemical_formula_sum   'Th2 Si4'
_cell_volume   123.25495465
_cell_formula_units_Z   2
loop_
 _symmetry_equiv_pos_site_id
 _symmetry_equiv_pos_as_xyz
  1  'x, y, z'
loop_
 _atom_site_type_symbol
 _atom_site_label
 _atom_site_symmetry_multiplicity
 _atom_site_fract_x
 _atom_site_fract_y
 _atom_site_fract_z
 _atom_site_occupancy
  Th  Th0  1  0.75000000  0.25000000  0.50000000  1
  Th  Th1  1  0.00000000  0.00000000  0.00000000  1
  Si  Si2  1  0.58307600  0.58307600  0.00000000  1
  Si  Si3  1  0.33307600  0.83307600  0.50000000  1
  Si  Si4  1  0.16692400  0.66692400  0.50000000  1
  Si  Si5  1  0.41692400  0.41692400  0.00000000  1
