# generated using pymatgen
data_Er3Mn3Ga2Ge
_symmetry_space_group_name_H-M   'P 1'
_cell_length_a   7.09933572
_cell_length_b   7.09933572
_cell_length_c   4.04821100
_cell_angle_alpha   90.00000000
_cell_angle_beta   90.00000000
_cell_angle_gamma   119.99999737
_symmetry_Int_Tables_number   1
_chemical_formula_structural   Er3Mn3Ga2Ge
_chemical_formula_sum   'Er3 Mn3 Ga2 Ge1'
_cell_volume   176.69701444
_cell_formula_units_Z   1
loop_
 _symmetry_equiv_pos_site_id
 _symmetry_equiv_pos_as_xyz
  1  'x, y, z'
loop_
 _atom_site_type_symbol
 _atom_site_label
 _atom_site_symmetry_multiplicity
 _atom_site_fract_x
 _atom_site_fract_y
 _atom_site_fract_z
 _atom_site_occupancy
  Er  Er0  1  0.00000000  0.41330400  0.50000000  1
  Er  Er1  1  0.58669600  0.58669600  0.50000000  1
  Er  Er2  1  0.41330400  0.00000000  0.50000000  1
  Mn  Mn3  1  0.00000000  0.76648200  0.00000000  1
  Mn  Mn4  1  0.23351800  0.23351800  0.00000000  1
  Mn  Mn5  1  0.76648200  0.00000000  0.00000000  1
  Ga  Ga6  1  0.33333300  0.66666700  0.00000000  1
  Ga  Ga7  1  0.66666700  0.33333300  0.00000000  1
  Ge  Ge8  1  0.00000000  0.00000000  0.50000000  1
