# generated using pymatgen
data_Ca2TiMnO6
_symmetry_space_group_name_H-M   'P 1'
_cell_length_a   5.35782900
_cell_length_b   9.41236482
_cell_length_c   9.31309171
_cell_angle_alpha   98.60448481
_cell_angle_beta   106.71580726
_cell_angle_gamma   90.00157389
_symmetry_Int_Tables_number   1
_chemical_formula_structural   Ca2TiMnO6
_chemical_formula_sum   'Ca8 Ti4 Mn4 O24'
_cell_volume   444.28868691
_cell_formula_units_Z   4
loop_
 _symmetry_equiv_pos_site_id
 _symmetry_equiv_pos_as_xyz
  1  'x, y, z'
loop_
 _atom_site_type_symbol
 _atom_site_label
 _atom_site_symmetry_multiplicity
 _atom_site_fract_x
 _atom_site_fract_y
 _atom_site_fract_z
 _atom_site_occupancy
  Ca  Ca0  1  0.56250000  0.18750500  0.12500100  1
  Ca  Ca1  1  0.31249900  0.43749700  0.62499700  1
  Ca  Ca2  1  0.06250400  0.68750000  0.12500200  1
  Ca  Ca3  1  0.81250200  0.93750600  0.62500300  1
  Ca  Ca4  1  0.93750000  0.31249500  0.87499900  1
  Ca  Ca5  1  0.68749700  0.56249400  0.37499700  1
  Ca  Ca6  1  0.43749600  0.81250100  0.87499900  1
  Ca  Ca7  1  0.18750100  0.06250200  0.37500200  1
  Ti  Ti8  1  0.00000200  0.00001000  0.99999600  1
  Ti  Ti9  1  0.75000000  0.24999900  0.50000000  1
  Ti  Ti10  1  0.49999800  0.49999100  0.00000400  1
  Ti  Ti11  1  0.25000000  0.75000100  0.49999900  1
  Mn  Mn12  1  0.87499700  0.62496300  0.74995700  1
  Mn  Mn13  1  0.62500000  0.87503600  0.25004400  1
  Mn  Mn14  1  0.37500100  0.12496000  0.74995700  1
  Mn  Mn15  1  0.12500500  0.37504100  0.25004700  1
  O  O16  1  0.06318200  0.18955500  0.12636700  1
  O  O17  1  0.81319600  0.43957800  0.62638900  1
  O  O18  1  0.56318300  0.68955600  0.12636900  1
  O  O19  1  0.31319600  0.93957800  0.62639000  1
  O  O20  1  0.43681800  0.31044600  0.87363300  1
  O  O21  1  0.18680300  0.56042100  0.37360900  1
  O  O22  1  0.93681600  0.81044300  0.87363100  1
  O  O23  1  0.68680400  0.06042300  0.37361100  1
  O  O24  1  0.25882500  0.04934300  0.90132100  1
  O  O25  1  0.00886900  0.29933600  0.40131600  1
  O  O26  1  0.75882800  0.54934200  0.90132100  1
  O  O27  1  0.50887400  0.79933600  0.40131700  1
  O  O28  1  0.49113100  0.20066400  0.59868300  1
  O  O29  1  0.24117500  0.45065700  0.09867900  1
  O  O30  1  0.99112500  0.70066400  0.59868300  1
  O  O31  1  0.74117200  0.95065800  0.09867900  1
  O  O32  1  0.72561700  0.07704500  0.84591100  1
  O  O33  1  0.47561000  0.32703900  0.34591000  1
  O  O34  1  0.22561600  0.57704700  0.84590700  1
  O  O35  1  0.97561100  0.82703900  0.34590900  1
  O  O36  1  0.02438900  0.17296100  0.65409000  1
  O  O37  1  0.77438300  0.42295400  0.15408800  1
  O  O38  1  0.52438900  0.67296000  0.65409200  1
  O  O39  1  0.27438300  0.92295300  0.15409200  1
