# generated using pymatgen
data_Ca3FeRhO6
_symmetry_space_group_name_H-M   'P 1'
_cell_length_a   6.46359789
_cell_length_b   9.03479606
_cell_length_c   9.24580083
_cell_angle_alpha   89.99999462
_cell_angle_beta   90.00000334
_cell_angle_gamma   91.89261997
_symmetry_Int_Tables_number   1
_chemical_formula_structural   Ca3FeRhO6
_chemical_formula_sum   'Ca12 Fe4 Rh4 O24'
_cell_volume   539.63515776
_cell_formula_units_Z   4
loop_
 _symmetry_equiv_pos_site_id
 _symmetry_equiv_pos_as_xyz
  1  'x, y, z'
loop_
 _atom_site_type_symbol
 _atom_site_label
 _atom_site_symmetry_multiplicity
 _atom_site_fract_x
 _atom_site_fract_y
 _atom_site_fract_z
 _atom_site_occupancy
  Ca  Ca0  1  0.61738400  0.56630800  0.68369200  1
  Ca  Ca1  1  0.61738400  0.06630800  0.18369200  1
  Ca  Ca2  1  0.25000000  0.75000000  0.13261600  1
  Ca  Ca3  1  0.25000000  0.25000000  0.63261600  1
  Ca  Ca4  1  0.88261600  0.43369200  0.18369200  1
  Ca  Ca5  1  0.88261600  0.93369200  0.68369200  1
  Ca  Ca6  1  0.38261600  0.43369200  0.31630800  1
  Ca  Ca7  1  0.38261600  0.93369200  0.81630800  1
  Ca  Ca8  1  0.11738400  0.56630800  0.81630800  1
  Ca  Ca9  1  0.11738400  0.06630800  0.31630800  1
  Ca  Ca10  1  0.75000000  0.25000000  0.86738400  1
  Ca  Ca11  1  0.75000000  0.75000000  0.36738400  1
  Fe  Fe12  1  0.25000000  0.75000000  0.50000000  1
  Fe  Fe13  1  0.75000000  0.75000000  0.00000000  1
  Fe  Fe14  1  0.25000000  0.25000000  0.00000000  1
  Fe  Fe15  1  0.75000000  0.25000000  0.50000000  1
  Rh  Rh16  1  0.00000000  0.00000000  0.00000000  1
  Rh  Rh17  1  0.00000000  0.50000000  0.50000000  1
  Rh  Rh18  1  0.50000000  0.50000000  0.00000000  1
  Rh  Rh19  1  0.50000000  0.00000000  0.50000000  1
  O  O20  1  0.79968800  0.53219000  0.93105500  1
  O  O21  1  0.79968800  0.03219000  0.43105500  1
  O  O22  1  0.60113500  0.63146700  0.16822200  1
  O  O23  1  0.60113500  0.13146700  0.66822200  1
  O  O24  1  0.46324500  0.70041100  0.90072300  1
  O  O25  1  0.46324500  0.20041100  0.40072300  1
  O  O26  1  0.03675500  0.79958900  0.90072300  1
  O  O27  1  0.03675500  0.29958900  0.40072300  1
  O  O28  1  0.89886500  0.36853300  0.66822200  1
  O  O29  1  0.89886500  0.86853300  0.16822200  1
  O  O30  1  0.70031200  0.46781000  0.43105500  1
  O  O31  1  0.70031200  0.96781000  0.93105500  1
  O  O32  1  0.20031200  0.46781000  0.06894500  1
  O  O33  1  0.20031200  0.96781000  0.56894500  1
  O  O34  1  0.39886500  0.36853300  0.83177800  1
  O  O35  1  0.39886500  0.86853300  0.33177800  1
  O  O36  1  0.53675500  0.29958900  0.09927700  1
  O  O37  1  0.53675500  0.79958900  0.59927700  1
  O  O38  1  0.96324500  0.20041100  0.09927700  1
  O  O39  1  0.96324500  0.70041100  0.59927700  1
  O  O40  1  0.29968800  0.53219000  0.56894500  1
  O  O41  1  0.29968800  0.03219000  0.06894500  1
  O  O42  1  0.10113500  0.63146700  0.33177800  1
  O  O43  1  0.10113500  0.13146700  0.83177800  1
