# generated using pymatgen
data_Ca2Fe2O5
_symmetry_space_group_name_H-M   'P 1'
_cell_length_a   8.39739575
_cell_length_b   8.39739575
_cell_length_c   5.56487078
_cell_angle_alpha   70.97341850
_cell_angle_beta   70.97341850
_cell_angle_gamma   124.09257972
_symmetry_Int_Tables_number   1
_chemical_formula_structural   Ca2Fe2O5
_chemical_formula_sum   'Ca4 Fe4 O10'
_cell_volume   233.50972477
_cell_formula_units_Z   2
loop_
 _symmetry_equiv_pos_site_id
 _symmetry_equiv_pos_as_xyz
  1  'x, y, z'
loop_
 _atom_site_type_symbol
 _atom_site_label
 _atom_site_symmetry_multiplicity
 _atom_site_fract_x
 _atom_site_fract_y
 _atom_site_fract_z
 _atom_site_occupancy
  Ca  Ca0  1  0.63454000  0.92161000  0.94637900  1
  Ca  Ca1  1  0.36546000  0.07839000  0.05362100  1
  Ca  Ca2  1  0.07839000  0.36546000  0.05362100  1
  Ca  Ca3  1  0.92161000  0.63454000  0.94637900  1
  Fe  Fe4  1  0.00000000  0.50000000  0.50000000  1
  Fe  Fe5  1  0.50000000  0.00000000  0.50000000  1
  Fe  Fe6  1  0.30914900  0.30914900  0.51581800  1
  Fe  Fe7  1  0.69085100  0.69085100  0.48418200  1
  O  O8  1  0.26825100  0.73174900  0.50000000  1
  O  O9  1  0.74010500  0.25989500  0.00000000  1
  O  O10  1  0.25989500  0.74010500  0.00000000  1
  O  O11  1  0.73174900  0.26825100  0.50000000  1
  O  O12  1  0.07350300  0.29275600  0.53743100  1
  O  O13  1  0.92649700  0.70724400  0.46256900  1
  O  O14  1  0.70724400  0.92649700  0.46256900  1
  O  O15  1  0.29275600  0.07350300  0.53743100  1
  O  O16  1  0.65740600  0.65740600  0.16112200  1
  O  O17  1  0.34259400  0.34259400  0.83887800  1
