# generated using pymatgen
data_Ce2Fe(SeO)2
_symmetry_space_group_name_H-M   'P 1'
_cell_length_a   8.44256441
_cell_length_b   8.44256441
_cell_length_c   17.29013500
_cell_angle_alpha   90.00000000
_cell_angle_beta   90.00000000
_cell_angle_gamma   152.81620476
_symmetry_Int_Tables_number   1
_chemical_formula_structural   Ce2Fe(SeO)2
_chemical_formula_sum   'Ce8 Fe4 Se8 O8'
_cell_volume   563.01156575
_cell_formula_units_Z   4
loop_
 _symmetry_equiv_pos_site_id
 _symmetry_equiv_pos_as_xyz
  1  'x, y, z'
loop_
 _atom_site_type_symbol
 _atom_site_label
 _atom_site_symmetry_multiplicity
 _atom_site_fract_x
 _atom_site_fract_y
 _atom_site_fract_z
 _atom_site_occupancy
  Ce  Ce0  1  0.76828200  0.23171800  0.58958700  1
  Ce  Ce1  1  0.22884100  0.77115900  0.40846400  1
  Ce  Ce2  1  0.77115900  0.22884100  0.90846400  1
  Ce  Ce3  1  0.23171800  0.76828200  0.08958700  1
  Ce  Ce4  1  0.07450000  0.92550000  0.58127900  1
  Ce  Ce5  1  0.92608600  0.07391400  0.41678400  1
  Ce  Ce6  1  0.07391400  0.92608600  0.91678400  1
  Ce  Ce7  1  0.92550000  0.07450000  0.08127900  1
  Fe  Fe8  1  0.63294900  0.36705100  0.75017100  1
  Fe  Fe9  1  0.36705100  0.63294900  0.25017100  1
  Fe  Fe10  1  0.41176800  0.58823200  0.72308000  1
  Fe  Fe11  1  0.58823200  0.41176800  0.22308000  1
  Se  Se12  1  0.42036200  0.57963800  0.57130700  1
  Se  Se13  1  0.57915200  0.42084800  0.43274200  1
  Se  Se14  1  0.42084800  0.57915200  0.93274200  1
  Se  Se15  1  0.57963800  0.42036200  0.07130700  1
  Se  Se16  1  0.00563600  0.99436400  0.75131700  1
  Se  Se17  1  0.99436400  0.00563600  0.25131700  1
  Se  Se18  1  0.25914300  0.74085700  0.75088800  1
  Se  Se19  1  0.74085700  0.25914300  0.25088800  1
  O  O20  1  0.21120900  0.78879100  0.54520500  1
  O  O21  1  0.78964300  0.21035700  0.45524000  1
  O  O22  1  0.21035700  0.78964300  0.95524000  1
  O  O23  1  0.78879100  0.21120900  0.04520500  1
  O  O24  1  0.62958100  0.37041900  0.63498500  1
  O  O25  1  0.37062100  0.62937900  0.36502100  1
  O  O26  1  0.62937900  0.37062100  0.86502100  1
  O  O27  1  0.37041900  0.62958100  0.13498500  1
