# generated using pymatgen
data_Cu(SbO3)2
_symmetry_space_group_name_H-M   'P 1'
_cell_length_a   4.71053040
_cell_length_b   4.74763367
_cell_length_c   10.50113390
_cell_angle_alpha   90.00000000
_cell_angle_beta   116.47176212
_cell_angle_gamma   90.00000000
_symmetry_Int_Tables_number   1
_chemical_formula_structural   Cu(SbO3)2
_chemical_formula_sum   'Cu2 Sb4 O12'
_cell_volume   210.22339315
_cell_formula_units_Z   2
loop_
 _symmetry_equiv_pos_site_id
 _symmetry_equiv_pos_as_xyz
  1  'x, y, z'
loop_
 _atom_site_type_symbol
 _atom_site_label
 _atom_site_symmetry_multiplicity
 _atom_site_fract_x
 _atom_site_fract_y
 _atom_site_fract_z
 _atom_site_occupancy
  Cu  Cu0  1  0.00000000  -0.00000000  0.00000000  1
  Cu  Cu1  1  0.00000000  0.50000000  0.50000000  1
  Sb  Sb2  1  0.33260060  0.00259578  0.33260425  1
  Sb  Sb3  1  0.33260060  0.49740422  0.83260425  1
  Sb  Sb4  1  0.66739940  0.50259578  0.16739575  1
  Sb  Sb5  1  0.66739940  0.99740422  0.66739575  1
  O  O6  1  0.30358178  0.68519935  0.99966719  1
  O  O7  1  0.62529056  0.69327324  0.32857403  1
  O  O8  1  0.69641822  0.18519935  0.50033281  1
  O  O9  1  0.03212851  0.18712719  0.82925772  1
  O  O10  1  0.96787149  0.68712719  0.67074228  1
  O  O11  1  0.62529056  0.80672676  0.82857403  1
  O  O12  1  0.69641822  0.31480065  0.00033281  1
  O  O13  1  0.37470944  0.30672676  0.67142597  1
  O  O14  1  0.30358178  0.81480065  0.49966719  1
  O  O15  1  0.37470944  0.19327324  0.17142597  1
  O  O16  1  0.03212851  0.31287281  0.32925772  1
  O  O17  1  0.96787149  0.81287281  0.17074228  1
