# generated using pymatgen
data_HoMnO3
_symmetry_space_group_name_H-M   'P 1'
_cell_length_a   6.11740084
_cell_length_b   6.11740084
_cell_length_c   12.54384500
_cell_angle_alpha   90.00000000
_cell_angle_beta   90.00000000
_cell_angle_gamma   125.39102334
_symmetry_Int_Tables_number   1
_chemical_formula_structural   HoMnO3
_chemical_formula_sum   'Ho6 Mn6 O18'
_cell_volume   382.68250285
_cell_formula_units_Z   6
loop_
 _symmetry_equiv_pos_site_id
 _symmetry_equiv_pos_as_xyz
  1  'x, y, z'
loop_
 _atom_site_type_symbol
 _atom_site_label
 _atom_site_symmetry_multiplicity
 _atom_site_fract_x
 _atom_site_fract_y
 _atom_site_fract_z
 _atom_site_occupancy
  Ho  Ho0  1  0.02754000  0.02754000  0.33905300  1
  Ho  Ho1  1  0.97246000  0.97246000  0.83905300  1
  Ho  Ho2  1  0.70055100  0.36690400  0.28685800  1
  Ho  Ho3  1  0.36690400  0.70055100  0.28685800  1
  Ho  Ho4  1  0.29944900  0.63309600  0.78685800  1
  Ho  Ho5  1  0.63309600  0.29944900  0.78685800  1
  Mn  Mn6  1  0.40050700  0.40050700  0.04199900  1
  Mn  Mn7  1  0.04248300  0.68389700  0.02171900  1
  Mn  Mn8  1  0.68389700  0.04248300  0.02171900  1
  Mn  Mn9  1  0.59949300  0.59949300  0.54199900  1
  Mn  Mn10  1  0.95751700  0.31610300  0.52171900  1
  Mn  Mn11  1  0.31610300  0.95751700  0.52171900  1
  O  O12  1  0.41258800  0.41258800  0.41752500  1
  O  O13  1  0.05913300  0.65169300  0.42418600  1
  O  O14  1  0.65169300  0.05913300  0.42418600  1
  O  O15  1  0.58741200  0.58741200  0.91752500  1
  O  O16  1  0.94086700  0.34830700  0.92418600  1
  O  O17  1  0.34830700  0.94086700  0.92418600  1
  O  O18  1  0.71260200  0.71260200  0.24959800  1
  O  O19  1  0.01681800  0.31814200  0.24752600  1
  O  O20  1  0.31814200  0.01681800  0.24752600  1
  O  O21  1  0.28739800  0.28739800  0.74959800  1
  O  O22  1  0.98318200  0.68185800  0.74752600  1
  O  O23  1  0.68185800  0.98318200  0.74752600  1
  O  O24  1  0.98120600  0.98120600  0.52887800  1
  O  O25  1  0.01879400  0.01879400  0.02887800  1
  O  O26  1  0.70549200  0.38282700  0.09079600  1
  O  O27  1  0.38282700  0.70549200  0.09079600  1
  O  O28  1  0.29450800  0.61717300  0.59079600  1
  O  O29  1  0.61717300  0.29450800  0.59079600  1
