# generated using pymatgen
data_TbFeSb3
_symmetry_space_group_name_H-M   'P 1'
_cell_length_a   6.10281400
_cell_length_b   12.02909500
_cell_length_c   12.45241600
_cell_angle_alpha   90.00000000
_cell_angle_beta   90.00000000
_cell_angle_gamma   90.00000000
_symmetry_Int_Tables_number   1
_chemical_formula_structural   TbFeSb3
_chemical_formula_sum   'Tb8 Fe8 Sb24'
_cell_volume   914.14841247
_cell_formula_units_Z   8
loop_
 _symmetry_equiv_pos_site_id
 _symmetry_equiv_pos_as_xyz
  1  'x, y, z'
loop_
 _atom_site_type_symbol
 _atom_site_label
 _atom_site_symmetry_multiplicity
 _atom_site_fract_x
 _atom_site_fract_y
 _atom_site_fract_z
 _atom_site_occupancy
  Tb  Tb0  1  0.25000000  0.50000000  0.70123000  1
  Tb  Tb1  1  0.75000000  0.00000000  0.29877000  1
  Tb  Tb2  1  0.75000000  0.50000000  0.29877000  1
  Tb  Tb3  1  0.25000000  0.00000000  0.70123000  1
  Tb  Tb4  1  0.22199200  0.25000000  0.30473000  1
  Tb  Tb5  1  0.77800800  0.75000000  0.69527000  1
  Tb  Tb6  1  0.27800800  0.75000000  0.30473000  1
  Tb  Tb7  1  0.72199200  0.25000000  0.69527000  1
  Fe  Fe8  1  0.46237200  0.36094000  0.10385500  1
  Fe  Fe9  1  0.53762800  0.86094000  0.89614500  1
  Fe  Fe10  1  0.03762800  0.63906000  0.10385500  1
  Fe  Fe11  1  0.96237200  0.13906000  0.89614500  1
  Fe  Fe12  1  0.53762800  0.63906000  0.89614500  1
  Fe  Fe13  1  0.46237200  0.13906000  0.10385500  1
  Fe  Fe14  1  0.96237200  0.36094000  0.89614500  1
  Fe  Fe15  1  0.03762800  0.86094000  0.10385500  1
  Sb  Sb16  1  0.25000000  0.50000000  0.97200500  1
  Sb  Sb17  1  0.75000000  0.00000000  0.02799500  1
  Sb  Sb18  1  0.75000000  0.50000000  0.02799500  1
  Sb  Sb19  1  0.25000000  0.00000000  0.97200500  1
  Sb  Sb20  1  0.23359300  0.25000000  0.77787700  1
  Sb  Sb21  1  0.76640700  0.75000000  0.22212300  1
  Sb  Sb22  1  0.26640700  0.75000000  0.77787700  1
  Sb  Sb23  1  0.73359300  0.25000000  0.22212300  1
  Sb  Sb24  1  0.98656300  0.37584600  0.50341600  1
  Sb  Sb25  1  0.01343700  0.87584600  0.49658400  1
  Sb  Sb26  1  0.51343700  0.62415400  0.50341600  1
  Sb  Sb27  1  0.48656300  0.12415400  0.49658400  1
  Sb  Sb28  1  0.01343700  0.62415400  0.49658400  1
  Sb  Sb29  1  0.98656300  0.12415400  0.50341600  1
  Sb  Sb30  1  0.48656300  0.37584600  0.49658400  1
  Sb  Sb31  1  0.51343700  0.87584600  0.50341600  1
  Sb  Sb32  1  0.25000000  0.50000000  0.22476800  1
  Sb  Sb33  1  0.75000000  0.00000000  0.77523200  1
  Sb  Sb34  1  0.75000000  0.50000000  0.77523200  1
  Sb  Sb35  1  0.25000000  0.00000000  0.22476800  1
  Sb  Sb36  1  0.61110500  0.25000000  0.94161600  1
  Sb  Sb37  1  0.38889500  0.75000000  0.05838400  1
  Sb  Sb38  1  0.88889500  0.75000000  0.94161600  1
  Sb  Sb39  1  0.11110500  0.25000000  0.05838400  1
