# generated using pymatgen
data_Nd6Al43W4
_symmetry_space_group_name_H-M   'P 1'
_cell_length_a   11.12373690
_cell_length_b   11.12373690
_cell_length_c   17.82412300
_cell_angle_alpha   90.00000000
_cell_angle_beta   90.00000000
_cell_angle_gamma   120.00000535
_symmetry_Int_Tables_number   1
_chemical_formula_structural   Nd6Al43W4
_chemical_formula_sum   'Nd12 Al86 W8'
_cell_volume   1910.03002994
_cell_formula_units_Z   2
loop_
 _symmetry_equiv_pos_site_id
 _symmetry_equiv_pos_as_xyz
  1  'x, y, z'
loop_
 _atom_site_type_symbol
 _atom_site_label
 _atom_site_symmetry_multiplicity
 _atom_site_fract_x
 _atom_site_fract_y
 _atom_site_fract_z
 _atom_site_occupancy
  Nd  Nd0  1  0.46982500  0.46982500  0.90452300  1
  Nd  Nd1  1  0.53017500  0.00000000  0.90452300  1
  Nd  Nd2  1  0.00000000  0.53017500  0.90452300  1
  Nd  Nd3  1  0.53017500  0.53017500  0.09547700  1
  Nd  Nd4  1  0.46982500  0.00000000  0.09547700  1
  Nd  Nd5  1  0.00000000  0.46982500  0.09547700  1
  Nd  Nd6  1  0.53017500  0.53017500  0.40452300  1
  Nd  Nd7  1  0.46982500  0.00000000  0.40452300  1
  Nd  Nd8  1  0.00000000  0.46982500  0.40452300  1
  Nd  Nd9  1  0.46982500  0.46982500  0.59547700  1
  Nd  Nd10  1  0.53017500  0.00000000  0.59547700  1
  Nd  Nd11  1  0.00000000  0.53017500  0.59547700  1
  Al  Al12  1  0.84177200  0.23498400  0.83495100  1
  Al  Al13  1  0.76501600  0.60678900  0.83495100  1
  Al  Al14  1  0.39321100  0.15822800  0.83495100  1
  Al  Al15  1  0.23498400  0.84177200  0.83495100  1
  Al  Al16  1  0.60678900  0.76501600  0.83495100  1
  Al  Al17  1  0.15822800  0.39321100  0.83495100  1
  Al  Al18  1  0.15822800  0.76501600  0.16504900  1
  Al  Al19  1  0.23498400  0.39321100  0.16504900  1
  Al  Al20  1  0.60678900  0.84177200  0.16504900  1
  Al  Al21  1  0.76501600  0.15822800  0.16504900  1
  Al  Al22  1  0.39321100  0.23498400  0.16504900  1
  Al  Al23  1  0.84177200  0.60678900  0.16504900  1
  Al  Al24  1  0.15822800  0.76501600  0.33495100  1
  Al  Al25  1  0.23498400  0.39321100  0.33495100  1
  Al  Al26  1  0.60678900  0.84177200  0.33495100  1
  Al  Al27  1  0.76501600  0.15822800  0.33495100  1
  Al  Al28  1  0.39321100  0.23498400  0.33495100  1
  Al  Al29  1  0.84177200  0.60678900  0.33495100  1
  Al  Al30  1  0.84177200  0.23498400  0.66504900  1
  Al  Al31  1  0.76501600  0.60678900  0.66504900  1
  Al  Al32  1  0.39321100  0.15822800  0.66504900  1
  Al  Al33  1  0.23498400  0.84177200  0.66504900  1
  Al  Al34  1  0.60678900  0.76501600  0.66504900  1
  Al  Al35  1  0.15822800  0.39321100  0.66504900  1
  Al  Al36  1  0.84221900  0.84221900  0.38445900  1
  Al  Al37  1  0.15778100  0.00000000  0.38445900  1
  Al  Al38  1  0.00000000  0.15778100  0.38445900  1
  Al  Al39  1  0.15778100  0.15778100  0.61554100  1
  Al  Al40  1  0.84221900  0.00000000  0.61554100  1
  Al  Al41  1  0.00000000  0.84221900  0.61554100  1
  Al  Al42  1  0.15778100  0.15778100  0.88445900  1
  Al  Al43  1  0.84221900  0.00000000  0.88445900  1
  Al  Al44  1  0.00000000  0.84221900  0.88445900  1
  Al  Al45  1  0.84221900  0.84221900  0.11554100  1
  Al  Al46  1  0.15778100  0.00000000  0.11554100  1
  Al  Al47  1  0.00000000  0.15778100  0.11554100  1
  Al  Al48  1  0.74895400  0.74895400  0.96877100  1
  Al  Al49  1  0.25104600  0.00000000  0.96877100  1
  Al  Al50  1  0.00000000  0.25104600  0.96877100  1
  Al  Al51  1  0.25104600  0.25104600  0.03122900  1
  Al  Al52  1  0.74895400  0.00000000  0.03122900  1
  Al  Al53  1  0.00000000  0.74895400  0.03122900  1
  Al  Al54  1  0.25104600  0.25104600  0.46877100  1
  Al  Al55  1  0.74895400  0.00000000  0.46877100  1
  Al  Al56  1  0.00000000  0.74895400  0.46877100  1
  Al  Al57  1  0.74895400  0.74895400  0.53122900  1
  Al  Al58  1  0.25104600  0.00000000  0.53122900  1
  Al  Al59  1  0.00000000  0.25104600  0.53122900  1
  Al  Al60  1  0.85224300  0.44817000  0.75000000  1
  Al  Al61  1  0.55183000  0.40407300  0.75000000  1
  Al  Al62  1  0.59592700  0.14775700  0.75000000  1
  Al  Al63  1  0.44817000  0.85224300  0.75000000  1
  Al  Al64  1  0.40407300  0.55183000  0.75000000  1
  Al  Al65  1  0.14775700  0.59592700  0.75000000  1
  Al  Al66  1  0.14775700  0.55183000  0.25000000  1
  Al  Al67  1  0.44817000  0.59592700  0.25000000  1
  Al  Al68  1  0.40407300  0.85224300  0.25000000  1
  Al  Al69  1  0.55183000  0.14775700  0.25000000  1
  Al  Al70  1  0.59592700  0.44817000  0.25000000  1
  Al  Al71  1  0.85224300  0.40407300  0.25000000  1
  Al  Al72  1  0.75316700  0.24683300  0.00000000  1
  Al  Al73  1  0.75316700  0.50633500  0.00000000  1
  Al  Al74  1  0.49366500  0.24683300  0.00000000  1
  Al  Al75  1  0.24683300  0.75316700  0.00000000  1
  Al  Al76  1  0.50633500  0.75316700  0.00000000  1
  Al  Al77  1  0.24683300  0.49366500  0.00000000  1
  Al  Al78  1  0.24683300  0.75316700  0.50000000  1
  Al  Al79  1  0.24683300  0.49366500  0.50000000  1
  Al  Al80  1  0.50633500  0.75316700  0.50000000  1
  Al  Al81  1  0.75316700  0.24683300  0.50000000  1
  Al  Al82  1  0.49366500  0.24683300  0.50000000  1
  Al  Al83  1  0.75316700  0.50633500  0.50000000  1
  Al  Al84  1  0.66666700  0.33333300  0.87288500  1
  Al  Al85  1  0.33333300  0.66666700  0.87288500  1
  Al  Al86  1  0.33333300  0.66666700  0.12711500  1
  Al  Al87  1  0.66666700  0.33333300  0.12711500  1
  Al  Al88  1  0.33333300  0.66666700  0.37288500  1
  Al  Al89  1  0.66666700  0.33333300  0.37288500  1
  Al  Al90  1  0.66666700  0.33333300  0.62711500  1
  Al  Al91  1  0.33333300  0.66666700  0.62711500  1
  Al  Al92  1  0.85340200  0.85340200  0.75000000  1
  Al  Al93  1  0.14659800  0.00000000  0.75000000  1
  Al  Al94  1  0.00000000  0.14659800  0.75000000  1
  Al  Al95  1  0.14659800  0.14659800  0.25000000  1
  Al  Al96  1  0.85340200  0.00000000  0.25000000  1
  Al  Al97  1  0.00000000  0.85340200  0.25000000  1
  W  W98  1  0.26951000  0.26951000  0.75000000  1
  W  W99  1  0.73049000  0.00000000  0.75000000  1
  W  W100  1  0.00000000  0.73049000  0.75000000  1
  W  W101  1  0.73049000  0.73049000  0.25000000  1
  W  W102  1  0.26951000  0.00000000  0.25000000  1
  W  W103  1  0.00000000  0.26951000  0.25000000  1
  W  W104  1  0.00000000  0.00000000  0.00000000  1
  W  W105  1  0.00000000  0.00000000  0.50000000  1
