# generated using pymatgen
data_MnGaCu2
_symmetry_space_group_name_H-M   'P 1'
_cell_length_a   9.81531941
_cell_length_b   9.81531941
_cell_length_c   9.81531941
_cell_angle_alpha   120.18809975
_cell_angle_beta   120.13525733
_cell_angle_gamma   89.72019805
_symmetry_Int_Tables_number   1
_chemical_formula_structural   MnGaCu2
_chemical_formula_sum   'Mn1 Ga1 Cu2'
_cell_volume   667.00635265
_cell_formula_units_Z   1
loop_
 _symmetry_equiv_pos_site_id
 _symmetry_equiv_pos_as_xyz
  1  'x, y, z'
loop_
 _atom_site_type_symbol
 _atom_site_label
 _atom_site_symmetry_multiplicity
 _atom_site_fract_x
 _atom_site_fract_y
 _atom_site_fract_z
 _atom_site_occupancy
  Mn  Mn0  1  0.00000000  0.00000000  0.00000000  1
  Ga  Ga1  1  0.50000000  0.00000000  0.50000000  1
  Cu  Cu2  1  0.25394200  0.00000000  0.25394200  1
  Cu  Cu3  1  0.74605800  0.00000000  0.74605800  1
