# generated using pymatgen
data_Ce2Ga10Pd
_symmetry_space_group_name_H-M   'P 1'
_cell_length_a   13.45576583
_cell_length_b   13.45576583
_cell_length_c   13.45576583
_cell_angle_alpha   161.09437761
_cell_angle_beta   161.09437761
_cell_angle_gamma   26.86076521
_symmetry_Int_Tables_number   1
_chemical_formula_structural   Ce2Ga10Pd
_chemical_formula_sum   'Ce2 Ga10 Pd1'
_cell_volume   255.66768754
_cell_formula_units_Z   1
loop_
 _symmetry_equiv_pos_site_id
 _symmetry_equiv_pos_as_xyz
  1  'x, y, z'
loop_
 _atom_site_type_symbol
 _atom_site_label
 _atom_site_symmetry_multiplicity
 _atom_site_fract_x
 _atom_site_fract_y
 _atom_site_fract_z
 _atom_site_occupancy
  Ce  Ce0  1  0.64423900  0.64423900  0.00000000  1
  Ce  Ce1  1  0.35576100  0.35576100  0.00000000  1
  Ga  Ga2  1  0.80238200  0.80238200  0.00000000  1
  Ga  Ga3  1  0.19761800  0.19761800  0.00000000  1
  Ga  Ga4  1  0.89455100  0.89455100  0.00000000  1
  Ga  Ga5  1  0.25000000  0.75000000  0.50000000  1
  Ga  Ga6  1  0.75000000  0.25000000  0.50000000  1
  Ga  Ga7  1  0.94796300  0.44796300  0.50000000  1
  Ga  Ga8  1  0.44796300  0.94796300  0.50000000  1
  Ga  Ga9  1  0.05203700  0.55203700  0.50000000  1
  Ga  Ga10  1  0.55203700  0.05203700  0.50000000  1
  Ga  Ga11  1  0.10544900  0.10544900  0.00000000  1
  Pd  Pd12  1  0.50000000  0.50000000  0.00000000  1
