# generated using pymatgen
data_Tb3NbO7
_symmetry_space_group_name_H-M   'P 1'
_cell_length_a   6.51447615
_cell_length_b   6.51447615
_cell_length_c   7.55436300
_cell_angle_alpha   90.00000000
_cell_angle_beta   90.00000000
_cell_angle_gamma   109.19828182
_symmetry_Int_Tables_number   1
_chemical_formula_structural   Tb3NbO7
_chemical_formula_sum   'Tb6 Nb2 O14'
_cell_volume   302.76557473
_cell_formula_units_Z   2
loop_
 _symmetry_equiv_pos_site_id
 _symmetry_equiv_pos_as_xyz
  1  'x, y, z'
loop_
 _atom_site_type_symbol
 _atom_site_label
 _atom_site_symmetry_multiplicity
 _atom_site_fract_x
 _atom_site_fract_y
 _atom_site_fract_z
 _atom_site_occupancy
  Tb  Tb0  1  0.46423900  0.99970100  0.25410600  1
  Tb  Tb1  1  0.00029900  0.53576100  0.24589400  1
  Tb  Tb2  1  0.47421700  0.47421700  0.00000000  1
  Tb  Tb3  1  0.52578300  0.52578300  0.50000000  1
  Tb  Tb4  1  0.53576100  0.00029900  0.75410600  1
  Tb  Tb5  1  0.99970100  0.46423900  0.74589400  1
  Nb  Nb6  1  0.00340000  0.00340000  0.50000000  1
  Nb  Nb7  1  0.99660000  0.99660000  0.00000000  1
  O  O8  1  0.92983300  0.07016700  0.75000000  1
  O  O9  1  0.63776600  0.36223400  0.75000000  1
  O  O10  1  0.31489700  0.06122900  0.53833400  1
  O  O11  1  0.93877100  0.68510300  0.96166600  1
  O  O12  1  0.62944100  0.37055900  0.25000000  1
  O  O13  1  0.91860700  0.67258400  0.52790400  1
  O  O14  1  0.32741600  0.08139300  0.97209600  1
  O  O15  1  0.08139300  0.32741600  0.02790400  1
  O  O16  1  0.67258400  0.91860700  0.47209600  1
  O  O17  1  0.37055900  0.62944100  0.75000000  1
  O  O18  1  0.68510300  0.93877100  0.03833400  1
  O  O19  1  0.06122900  0.31489700  0.46166600  1
  O  O20  1  0.36223400  0.63776600  0.25000000  1
  O  O21  1  0.07016700  0.92983300  0.25000000  1
