# generated using pymatgen
data_Sr2Nb2O7
_symmetry_space_group_name_H-M   'P 1'
_cell_length_a   5.80171800
_cell_length_b   7.97565200
_cell_length_c   27.35209300
_cell_angle_alpha   90.00000000
_cell_angle_beta   90.00000000
_cell_angle_gamma   90.00000000
_symmetry_Int_Tables_number   1
_chemical_formula_structural   Sr2Nb2O7
_chemical_formula_sum   'Sr16 Nb16 O56'
_cell_volume   1265.64927942
_cell_formula_units_Z   8
loop_
 _symmetry_equiv_pos_site_id
 _symmetry_equiv_pos_as_xyz
  1  'x, y, z'
loop_
 _atom_site_type_symbol
 _atom_site_label
 _atom_site_symmetry_multiplicity
 _atom_site_fract_x
 _atom_site_fract_y
 _atom_site_fract_z
 _atom_site_occupancy
  Sr  Sr0  1  0.66926100  0.62524900  0.53741800  1
  Sr  Sr1  1  0.16926100  0.37475100  0.46258200  1
  Sr  Sr2  1  0.66926100  0.87475100  0.03741800  1
  Sr  Sr3  1  0.16926100  0.12524900  0.96258200  1
  Sr  Sr4  1  0.25564500  0.62502400  0.70156000  1
  Sr  Sr5  1  0.75564500  0.37497600  0.29844000  1
  Sr  Sr6  1  0.25564500  0.87497600  0.20156000  1
  Sr  Sr7  1  0.75564500  0.12502400  0.79844000  1
  Sr  Sr8  1  0.75709400  0.62462100  0.80481300  1
  Sr  Sr9  1  0.25709400  0.37537900  0.19518700  1
  Sr  Sr10  1  0.75709400  0.87537900  0.30481300  1
  Sr  Sr11  1  0.25709400  0.12462100  0.69518700  1
  Sr  Sr12  1  0.21242000  0.62143000  0.95106200  1
  Sr  Sr13  1  0.71242000  0.37857000  0.04893800  1
  Sr  Sr14  1  0.21242000  0.87857000  0.45106200  1
  Sr  Sr15  1  0.71242000  0.12143000  0.54893800  1
  Nb  Nb16  1  0.21882800  0.87144000  0.58808800  1
  Nb  Nb17  1  0.71882800  0.12856000  0.41191200  1
  Nb  Nb18  1  0.21882800  0.62856000  0.08808800  1
  Nb  Nb19  1  0.71882800  0.37144000  0.91191200  1
  Nb  Nb20  1  0.75160800  0.87831800  0.69127900  1
  Nb  Nb21  1  0.25160800  0.12168200  0.30872100  1
  Nb  Nb22  1  0.75160800  0.62168200  0.19127900  1
  Nb  Nb23  1  0.25160800  0.37831800  0.80872100  1
  Nb  Nb24  1  0.25019000  0.87207100  0.80787200  1
  Nb  Nb25  1  0.75019000  0.12792900  0.19212800  1
  Nb  Nb26  1  0.25019000  0.62792900  0.30787200  1
  Nb  Nb27  1  0.75019000  0.37207100  0.69212800  1
  Nb  Nb28  1  0.72044600  0.87638800  0.91080300  1
  Nb  Nb29  1  0.22044600  0.12361200  0.08919700  1
  Nb  Nb30  1  0.72044600  0.62361200  0.41080400  1
  Nb  Nb31  1  0.22044600  0.37638800  0.58919700  1
  O  O32  1  0.42615700  0.88756100  0.53405800  1
  O  O33  1  0.92615700  0.11243900  0.46594200  1
  O  O34  1  0.42615700  0.61243900  0.03405800  1
  O  O35  1  0.92615700  0.38756100  0.96594200  1
  O  O36  1  0.94918400  0.85480100  0.55349800  1
  O  O37  1  0.44918400  0.14519900  0.44650200  1
  O  O38  1  0.94918400  0.64519900  0.05349800  1
  O  O39  1  0.44918400  0.35480100  0.94650200  1
  O  O40  1  0.29484700  0.62512200  0.59958500  1
  O  O41  1  0.79484700  0.37487800  0.40041500  1
  O  O42  1  0.29484700  0.87487800  0.09958500  1
  O  O43  1  0.79484700  0.12512200  0.90041500  1
  O  O44  1  0.55338800  0.91070100  0.63857900  1
  O  O45  1  0.05338800  0.08929900  0.36142100  1
  O  O46  1  0.55338800  0.58929900  0.13857900  1
  O  O47  1  0.05338800  0.41070100  0.86142100  1
  O  O48  1  0.05856300  0.86115500  0.65803400  1
  O  O49  1  0.55856300  0.13884500  0.34196600  1
  O  O50  1  0.05856300  0.63884500  0.15803400  1
  O  O51  1  0.55856300  0.36115500  0.84196600  1
  O  O52  1  0.72849000  0.62518500  0.69822400  1
  O  O53  1  0.32222300  0.62514900  0.79628200  1
  O  O54  1  0.72849000  0.87481500  0.19822400  1
  O  O55  1  0.22849000  0.12518500  0.80177600  1
  O  O56  1  0.50489300  0.89935500  0.74169200  1
  O  O57  1  0.00489300  0.10064500  0.25830800  1
  O  O58  1  0.50489300  0.60064500  0.24169200  1
  O  O59  1  0.00489300  0.39935500  0.75830800  1
  O  O60  1  0.00519500  0.85077700  0.75776800  1
  O  O61  1  0.50519500  0.14922300  0.24223200  1
  O  O62  1  0.00519500  0.64922300  0.25776800  1
  O  O63  1  0.50519500  0.35077700  0.74223200  1
  O  O64  1  0.43718900  0.36089800  0.53763700  1
  O  O65  1  0.93718900  0.63910200  0.46236300  1
  O  O66  1  0.43718900  0.13910200  0.03763700  1
  O  O67  1  0.93718900  0.86089800  0.96236300  1
  O  O68  1  0.96146600  0.39201100  0.54934300  1
  O  O69  1  0.46146600  0.60798900  0.45065700  1
  O  O70  1  0.96146600  0.10798900  0.04934300  1
  O  O71  1  0.46146600  0.89201100  0.95065700  1
  O  O72  1  0.20384400  0.12442000  0.59865700  1
  O  O73  1  0.70384400  0.87558000  0.40134300  1
  O  O74  1  0.20384400  0.37558000  0.09865700  1
  O  O75  1  0.70384400  0.62442000  0.90134300  1
  O  O76  1  0.54901400  0.33989500  0.63991900  1
  O  O77  1  0.04901400  0.66010500  0.36008100  1
  O  O78  1  0.54901400  0.16010500  0.13991900  1
  O  O79  1  0.04901400  0.83989500  0.86008100  1
  O  O80  1  0.05645400  0.38938800  0.65767800  1
  O  O81  1  0.55645400  0.61061200  0.34232200  1
  O  O82  1  0.05645400  0.11061200  0.15767800  1
  O  O83  1  0.55645400  0.88938800  0.84232200  1
  O  O84  1  0.82222300  0.12514900  0.70371800  1
  O  O85  1  0.32222300  0.87485100  0.29628200  1
  O  O86  1  0.82222300  0.37485100  0.20371800  1
  O  O87  1  0.22849000  0.37481500  0.30177600  1
