# generated using pymatgen
data_MnSn2
_symmetry_space_group_name_H-M   'P 1'
_cell_length_a   5.41101008
_cell_length_b   5.41101008
_cell_length_c   5.41101008
_cell_angle_alpha   104.54056818
_cell_angle_beta   104.54056818
_cell_angle_gamma   119.85912242
_symmetry_Int_Tables_number   1
_chemical_formula_structural   MnSn2
_chemical_formula_sum   'Mn2 Sn4'
_cell_volume   118.90561496
_cell_formula_units_Z   2
loop_
 _symmetry_equiv_pos_site_id
 _symmetry_equiv_pos_as_xyz
  1  'x, y, z'
loop_
 _atom_site_type_symbol
 _atom_site_label
 _atom_site_symmetry_multiplicity
 _atom_site_fract_x
 _atom_site_fract_y
 _atom_site_fract_z
 _atom_site_occupancy
  Mn  Mn0  1  0.75000000  0.75000000  0.00000000  1
  Mn  Mn1  1  0.25000000  0.25000000  0.00000000  1
  Sn  Sn2  1  0.66373800  0.16373800  0.82747600  1
  Sn  Sn3  1  0.33626200  0.83626200  0.17252400  1
  Sn  Sn4  1  0.83626200  0.66373800  0.50000000  1
  Sn  Sn5  1  0.16373800  0.33626200  0.50000000  1
