# generated using pymatgen
data_DyGaCo4
_symmetry_space_group_name_H-M   'P 1'
_cell_length_a   4.98480202
_cell_length_b   4.98480202
_cell_length_c   4.01286900
_cell_angle_alpha   90.00000000
_cell_angle_beta   90.00000000
_cell_angle_gamma   121.20691374
_symmetry_Int_Tables_number   1
_chemical_formula_structural   DyGaCo4
_chemical_formula_sum   'Dy1 Ga1 Co4'
_cell_volume   85.28451211
_cell_formula_units_Z   1
loop_
 _symmetry_equiv_pos_site_id
 _symmetry_equiv_pos_as_xyz
  1  'x, y, z'
loop_
 _atom_site_type_symbol
 _atom_site_label
 _atom_site_symmetry_multiplicity
 _atom_site_fract_x
 _atom_site_fract_y
 _atom_site_fract_z
 _atom_site_occupancy
  Dy  Dy0  1  0.50000000  0.50000000  0.00000000  1
  Ga  Ga1  1  0.00000000  0.00000000  0.50000000  1
  Co  Co2  1  0.18396800  0.81603200  0.00000000  1
  Co  Co3  1  0.81603200  0.18396800  0.00000000  1
  Co  Co4  1  0.00000000  0.50000000  0.50000000  1
  Co  Co5  1  0.50000000  0.00000000  0.50000000  1
