# generated using pymatgen
data_Hg
_symmetry_space_group_name_H-M   'P 1'
_cell_length_a   6.72707179
_cell_length_b   6.31004883
_cell_length_c   3.49369269
_cell_angle_alpha   81.16863550
_cell_angle_beta   67.95474447
_cell_angle_gamma   30.87662003
_symmetry_Int_Tables_number   1
_chemical_formula_structural   Hg
_chemical_formula_sum   Hg2
_cell_volume   65.96147712
_cell_formula_units_Z   2
loop_
 _symmetry_equiv_pos_site_id
 _symmetry_equiv_pos_as_xyz
  1  'x, y, z'
loop_
 _atom_site_type_symbol
 _atom_site_label
 _atom_site_symmetry_multiplicity
 _atom_site_fract_x
 _atom_site_fract_y
 _atom_site_fract_z
 _atom_site_occupancy
  Hg  Hg0  1  0.36598100  0.36598100  0.63401900  1
  Hg  Hg1  1  0.63401900  0.63401900  0.36598100  1
