# generated using pymatgen
data_CaCuP2O7
_symmetry_space_group_name_H-M   'P 1'
_cell_length_a   6.08792800
_cell_length_b   6.51428089
_cell_length_c   7.46745832
_cell_angle_alpha   98.39633579
_cell_angle_beta   89.49590291
_cell_angle_gamma   111.50005729
_symmetry_Int_Tables_number   1
_chemical_formula_structural   CaCuP2O7
_chemical_formula_sum   'Ca2 Cu2 P4 O14'
_cell_volume   272.26595414
_cell_formula_units_Z   2
loop_
 _symmetry_equiv_pos_site_id
 _symmetry_equiv_pos_as_xyz
  1  'x, y, z'
loop_
 _atom_site_type_symbol
 _atom_site_label
 _atom_site_symmetry_multiplicity
 _atom_site_fract_x
 _atom_site_fract_y
 _atom_site_fract_z
 _atom_site_occupancy
  Ca  Ca0  1  0.70315200  0.71543000  0.36267100  1
  Ca  Ca1  1  0.29684800  0.28457000  0.63732900  1
  Cu  Cu2  1  0.73373200  0.12275300  0.82896200  1
  Cu  Cu3  1  0.26626800  0.87724700  0.17103800  1
  P  P4  1  0.84318200  0.66177800  0.88218100  1
  P  P5  1  0.15681800  0.33822200  0.11781900  1
  P  P6  1  0.75908300  0.21686500  0.37696600  1
  P  P7  1  0.24091700  0.78313500  0.62303400  1
  O  O8  1  0.93763000  0.73917400  0.08242500  1
  O  O9  1  0.06237000  0.26082600  0.91757500  1
  O  O10  1  0.74568100  0.81666000  0.80571000  1
  O  O11  1  0.25431900  0.18334000  0.19429000  1
  O  O12  1  0.66598300  0.41787100  0.85423600  1
  O  O13  1  0.33401700  0.58212900  0.14576400  1
  O  O14  1  0.36394900  0.62655400  0.54794400  1
  O  O15  1  0.63605100  0.37344600  0.45205600  1
  O  O16  1  0.89979400  0.15930100  0.51561400  1
  O  O17  1  0.10020600  0.84069900  0.48438600  1
  O  O18  1  0.93136600  0.34853400  0.23138200  1
  O  O19  1  0.40979800  0.00641900  0.73169400  1
  O  O20  1  0.59020200  0.99358100  0.26830600  1
  O  O21  1  0.06863400  0.65146600  0.76861800  1
