# generated using pymatgen
data_Gd(Al2Cr)4
_symmetry_space_group_name_H-M   'P 1'
_cell_length_a   6.81407357
_cell_length_b   6.81407357
_cell_length_c   6.81407357
_cell_angle_alpha   97.87206893
_cell_angle_beta   97.87206893
_cell_angle_gamma   136.55848757
_symmetry_Int_Tables_number   1
_chemical_formula_structural   Gd(Al2Cr)4
_chemical_formula_sum   'Gd1 Al8 Cr4'
_cell_volume   202.10639372
_cell_formula_units_Z   1
loop_
 _symmetry_equiv_pos_site_id
 _symmetry_equiv_pos_as_xyz
  1  'x, y, z'
loop_
 _atom_site_type_symbol
 _atom_site_label
 _atom_site_symmetry_multiplicity
 _atom_site_fract_x
 _atom_site_fract_y
 _atom_site_fract_z
 _atom_site_occupancy
  Gd  Gd0  1  0.00000000  0.00000000  0.00000000  1
  Al  Al1  1  0.72258700  0.50000000  0.22258700  1
  Al  Al2  1  0.50000000  0.72258700  0.22258700  1
  Al  Al3  1  0.50000000  0.27741300  0.77741300  1
  Al  Al4  1  0.27741300  0.50000000  0.77741300  1
  Al  Al5  1  0.66179800  0.00000000  0.66179800  1
  Al  Al6  1  0.33820200  0.00000000  0.33820200  1
  Al  Al7  1  0.00000000  0.33820200  0.33820200  1
  Al  Al8  1  0.00000000  0.66179800  0.66179800  1
  Cr  Cr9  1  0.00000000  0.00000000  0.50000000  1
  Cr  Cr10  1  0.50000000  0.00000000  0.00000000  1
  Cr  Cr11  1  0.00000000  0.50000000  0.00000000  1
  Cr  Cr12  1  0.50000000  0.50000000  0.50000000  1
