# generated using pymatgen
data_Er3Ni2
_symmetry_space_group_name_H-M   'P 1'
_cell_length_a   7.14429754
_cell_length_b   7.14429754
_cell_length_c   7.14429764
_cell_angle_alpha   72.81601512
_cell_angle_beta   72.81601512
_cell_angle_gamma   72.81602075
_symmetry_Int_Tables_number   1
_chemical_formula_structural   Er3Ni2
_chemical_formula_sum   'Er9 Ni6'
_cell_volume   324.05219001
_cell_formula_units_Z   3
loop_
 _symmetry_equiv_pos_site_id
 _symmetry_equiv_pos_as_xyz
  1  'x, y, z'
loop_
 _atom_site_type_symbol
 _atom_site_label
 _atom_site_symmetry_multiplicity
 _atom_site_fract_x
 _atom_site_fract_y
 _atom_site_fract_z
 _atom_site_occupancy
  Er  Er0  1  0.50000000  0.50000000  0.50000000  1
  Er  Er1  1  0.29243800  0.29243800  0.29243800  1
  Er  Er2  1  0.70756200  0.70756200  0.70756200  1
  Er  Er3  1  0.83798300  0.32872100  0.11261700  1
  Er  Er4  1  0.32872100  0.11261700  0.83798300  1
  Er  Er5  1  0.11261700  0.83798300  0.32872100  1
  Er  Er6  1  0.16201700  0.67127900  0.88738300  1
  Er  Er7  1  0.67127900  0.88738300  0.16201700  1
  Er  Er8  1  0.88738300  0.16201700  0.67127900  1
  Ni  Ni9  1  0.45995200  0.64401400  0.08689000  1
  Ni  Ni10  1  0.64401400  0.08689000  0.45995200  1
  Ni  Ni11  1  0.08689000  0.45995200  0.64401400  1
  Ni  Ni12  1  0.54004800  0.35598600  0.91311000  1
  Ni  Ni13  1  0.35598600  0.91311000  0.54004800  1
  Ni  Ni14  1  0.91311000  0.54004800  0.35598600  1
