# generated using pymatgen
data_BaCe2O4
_symmetry_space_group_name_H-M   'P 1'
_cell_length_a   3.64031400
_cell_length_b   10.63589400
_cell_length_c   12.57892500
_cell_angle_alpha   90.00000000
_cell_angle_beta   90.00000000
_cell_angle_gamma   90.00000000
_symmetry_Int_Tables_number   1
_chemical_formula_structural   BaCe2O4
_chemical_formula_sum   'Ba4 Ce8 O16'
_cell_volume   487.03074055
_cell_formula_units_Z   4
loop_
 _symmetry_equiv_pos_site_id
 _symmetry_equiv_pos_as_xyz
  1  'x, y, z'
loop_
 _atom_site_type_symbol
 _atom_site_label
 _atom_site_symmetry_multiplicity
 _atom_site_fract_x
 _atom_site_fract_y
 _atom_site_fract_z
 _atom_site_occupancy
  Ba  Ba0  1  0.25000000  0.25012000  0.35324900  1
  Ba  Ba1  1  0.25000000  0.75012000  0.14675100  1
  Ba  Ba2  1  0.75000000  0.74988000  0.64675100  1
  Ba  Ba3  1  0.75000000  0.24988000  0.85324900  1
  Ce  Ce4  1  0.25000000  0.07609000  0.61194000  1
  Ce  Ce5  1  0.25000000  0.57609000  0.88806000  1
  Ce  Ce6  1  0.75000000  0.92391000  0.38806000  1
  Ce  Ce7  1  0.75000000  0.42391000  0.11194000  1
  Ce  Ce8  1  0.25000000  0.58173100  0.38919200  1
  Ce  Ce9  1  0.25000000  0.08173100  0.11080800  1
  Ce  Ce10  1  0.75000000  0.41826900  0.61080800  1
  Ce  Ce11  1  0.75000000  0.91826900  0.88919200  1
  O  O12  1  0.25000000  0.28501100  0.67405300  1
  O  O13  1  0.25000000  0.78501100  0.82594700  1
  O  O14  1  0.75000000  0.71498900  0.32594700  1
  O  O15  1  0.75000000  0.21498900  0.17405300  1
  O  O16  1  0.25000000  0.37791100  0.98513500  1
  O  O17  1  0.25000000  0.87791100  0.51486500  1
  O  O18  1  0.75000000  0.62208900  0.01486500  1
  O  O19  1  0.75000000  0.12208900  0.48513500  1
  O  O20  1  0.25000000  0.48765000  0.21625600  1
  O  O21  1  0.25000000  0.98765000  0.28374400  1
  O  O22  1  0.75000000  0.51235000  0.78374400  1
  O  O23  1  0.75000000  0.01235000  0.71625600  1
  O  O24  1  0.25000000  0.06659100  0.92371900  1
  O  O25  1  0.25000000  0.56659100  0.57628100  1
  O  O26  1  0.75000000  0.93340900  0.07628100  1
  O  O27  1  0.75000000  0.43340900  0.42371900  1
