# generated using pymatgen
data_NaO2
_symmetry_space_group_name_H-M   'P 1'
_cell_length_a   5.14820800
_cell_length_b   6.50091800
_cell_length_c   9.37583100
_cell_angle_alpha   90.00000000
_cell_angle_beta   90.00000000
_cell_angle_gamma   90.00000000
_symmetry_Int_Tables_number   1
_chemical_formula_structural   NaO2
_chemical_formula_sum   'Na8 O16'
_cell_volume   313.79104374
_cell_formula_units_Z   8
loop_
 _symmetry_equiv_pos_site_id
 _symmetry_equiv_pos_as_xyz
  1  'x, y, z'
loop_
 _atom_site_type_symbol
 _atom_site_label
 _atom_site_symmetry_multiplicity
 _atom_site_fract_x
 _atom_site_fract_y
 _atom_site_fract_z
 _atom_site_occupancy
  Na  Na0  1  0.34468200  0.73664700  0.62241400  1
  Na  Na1  1  0.84468200  0.76335300  0.37758600  1
  Na  Na2  1  0.65531800  0.23664700  0.87758600  1
  Na  Na3  1  0.15531800  0.26335300  0.12241400  1
  Na  Na4  1  0.65531800  0.26335300  0.37758600  1
  Na  Na5  1  0.15531800  0.23664700  0.62241400  1
  Na  Na6  1  0.34468200  0.76335300  0.12241400  1
  Na  Na7  1  0.84468200  0.73664700  0.87758600  1
  O  O8  1  0.27738400  0.03885900  0.93619000  1
  O  O9  1  0.77738400  0.46114100  0.06381000  1
  O  O10  1  0.72261600  0.53885900  0.56381000  1
  O  O11  1  0.22261600  0.96114100  0.43619000  1
  O  O12  1  0.72261600  0.96114100  0.06381000  1
  O  O13  1  0.22261600  0.53885900  0.93619000  1
  O  O14  1  0.27738400  0.46114100  0.43619000  1
  O  O15  1  0.77738400  0.03885900  0.56381000  1
  O  O16  1  0.57758800  0.05681700  0.65665700  1
  O  O17  1  0.07758800  0.44318300  0.34334300  1
  O  O18  1  0.42241200  0.55681700  0.84334300  1
  O  O19  1  0.92241200  0.94318300  0.15665700  1
  O  O20  1  0.42241200  0.94318300  0.34334300  1
  O  O21  1  0.92241200  0.55681700  0.65665700  1
  O  O22  1  0.57758800  0.44318300  0.15665700  1
  O  O23  1  0.07758800  0.05681700  0.84334300  1
