# generated using pymatgen
data_KFeS2
_symmetry_space_group_name_H-M   'P 1'
_cell_length_a   6.64715640
_cell_length_b   6.64715640
_cell_length_c   5.37102030
_cell_angle_alpha   78.46385042
_cell_angle_beta   78.46385042
_cell_angle_gamma   116.23401461
_symmetry_Int_Tables_number   1
_chemical_formula_structural   KFeS2
_chemical_formula_sum   'K2 Fe2 S4'
_cell_volume   197.02372265
_cell_formula_units_Z   2
loop_
 _symmetry_equiv_pos_site_id
 _symmetry_equiv_pos_as_xyz
  1  'x, y, z'
loop_
 _atom_site_type_symbol
 _atom_site_label
 _atom_site_symmetry_multiplicity
 _atom_site_fract_x
 _atom_site_fract_y
 _atom_site_fract_z
 _atom_site_occupancy
  K  K0  1  0.64188200  0.35811800  0.75000000  1
  K  K1  1  0.35811800  0.64188200  0.25000000  1
  Fe  Fe2  1  0.99792000  0.00208000  0.25000000  1
  Fe  Fe3  1  0.00208000  0.99792000  0.75000000  1
  S  S4  1  0.29667100  0.08443400  0.40275800  1
  S  S5  1  0.91556600  0.70332900  0.09724200  1
  S  S6  1  0.08443400  0.29667100  0.90275800  1
  S  S7  1  0.70332900  0.91556600  0.59724200  1
