# generated using pymatgen
data_Cr2O3
_symmetry_space_group_name_H-M   'P 1'
_cell_length_a   5.12801840
_cell_length_b   5.12819400
_cell_length_c   5.63449781
_cell_angle_alpha   62.92755855
_cell_angle_beta   89.99998088
_cell_angle_gamma   60.00063226
_symmetry_Int_Tables_number   1
_chemical_formula_structural   Cr2O3
_chemical_formula_sum   'Cr4 O6'
_cell_volume   109.17433767
_cell_formula_units_Z   2
loop_
 _symmetry_equiv_pos_site_id
 _symmetry_equiv_pos_as_xyz
  1  'x, y, z'
loop_
 _atom_site_type_symbol
 _atom_site_label
 _atom_site_symmetry_multiplicity
 _atom_site_fract_x
 _atom_site_fract_y
 _atom_site_fract_z
 _atom_site_occupancy
  Cr  Cr0  1  0.00070800  0.99858000  0.00212800  1
  Cr  Cr1  1  0.50046500  0.99905900  0.50142000  1
  Cr  Cr2  1  0.68525600  0.62949800  0.05575000  1
  Cr  Cr3  1  0.31346400  0.37307100  0.94039900  1
  O  O4  1  0.60980700  0.50295400  0.77979800  1
  O  O5  1  0.11449900  0.17064200  0.22030300  1
  O  O6  1  0.71485500  0.89416900  0.22030900  1
  O  O7  1  0.28274100  0.10747700  0.77979600  1
  O  O8  1  0.88723800  0.83002700  0.77979900  1
  O  O9  1  0.39096900  0.49452400  0.22029800  1
