# generated using pymatgen
data_Cr3Se4
_symmetry_space_group_name_H-M   'P 1'
_cell_length_a   6.91890700
_cell_length_b   6.91890700
_cell_length_c   6.43459467
_cell_angle_alpha   63.86083131
_cell_angle_beta   63.86083131
_cell_angle_gamma   30.84184850
_symmetry_Int_Tables_number   1
_chemical_formula_structural   Cr3Se4
_chemical_formula_sum   'Cr3 Se4'
_cell_volume   140.46314124
_cell_formula_units_Z   1
loop_
 _symmetry_equiv_pos_site_id
 _symmetry_equiv_pos_as_xyz
  1  'x, y, z'
loop_
 _atom_site_type_symbol
 _atom_site_label
 _atom_site_symmetry_multiplicity
 _atom_site_fract_x
 _atom_site_fract_y
 _atom_site_fract_z
 _atom_site_occupancy
  Cr  Cr0  1  0.50000000  0.50000000  0.50000000  1
  Cr  Cr1  1  0.76168500  0.76168500  0.21774000  1
  Cr  Cr2  1  0.23831500  0.23831500  0.78226000  1
  Se  Se3  1  0.13426000  0.13426000  0.52273100  1
  Se  Se4  1  0.86574000  0.86574000  0.47726900  1
  Se  Se5  1  0.62280300  0.62280300  0.04895400  1
  Se  Se6  1  0.37719700  0.37719700  0.95104600  1
