# generated using pymatgen
data_Dy3(Co2Sn)4
_symmetry_space_group_name_H-M   'P 1'
_cell_length_a   7.54230900
_cell_length_b   8.81710259
_cell_length_c   8.81710259
_cell_angle_alpha   120.00000442
_cell_angle_beta   90.00000000
_cell_angle_gamma   90.00000000
_symmetry_Int_Tables_number   1
_chemical_formula_structural   Dy3(Co2Sn)4
_chemical_formula_sum   'Dy6 Co16 Sn8'
_cell_volume   507.79301340
_cell_formula_units_Z   2
loop_
 _symmetry_equiv_pos_site_id
 _symmetry_equiv_pos_as_xyz
  1  'x, y, z'
loop_
 _atom_site_type_symbol
 _atom_site_label
 _atom_site_symmetry_multiplicity
 _atom_site_fract_x
 _atom_site_fract_y
 _atom_site_fract_z
 _atom_site_occupancy
  Dy  Dy0  1  0.78547900  0.47506400  0.95012900  1
  Dy  Dy1  1  0.78547900  0.47506400  0.52493600  1
  Dy  Dy2  1  0.28547900  0.52493600  0.04987100  1
  Dy  Dy3  1  0.78547900  0.04987100  0.52493600  1
  Dy  Dy4  1  0.28547900  0.52493600  0.47506400  1
  Dy  Dy5  1  0.28547900  0.95012900  0.47506400  1
  Co  Co6  1  0.62562200  0.66666700  0.33333300  1
  Co  Co7  1  0.12562200  0.33333300  0.66666700  1
  Co  Co8  1  0.75605600  0.09840000  0.19680100  1
  Co  Co9  1  0.75605600  0.09840000  0.90160000  1
  Co  Co10  1  0.25605600  0.90160000  0.80319900  1
  Co  Co11  1  0.75605600  0.80319900  0.90160000  1
  Co  Co12  1  0.25605600  0.90160000  0.09840000  1
  Co  Co13  1  0.25605600  0.19680100  0.09840000  1
  Co  Co14  1  0.94012700  0.83959700  0.67919300  1
  Co  Co15  1  0.94012700  0.83959700  0.16040300  1
  Co  Co16  1  0.44012700  0.16040300  0.32080700  1
  Co  Co17  1  0.94012700  0.32080700  0.16040300  1
  Co  Co18  1  0.44012700  0.16040300  0.83959700  1
  Co  Co19  1  0.44012700  0.67919300  0.83959700  1
  Co  Co20  1  0.99948800  0.00000000  0.00000000  1
  Co  Co21  1  0.49948800  0.00000000  0.00000000  1
  Sn  Sn22  1  0.97609100  0.66666700  0.33333300  1
  Sn  Sn23  1  0.47609100  0.33333300  0.66666700  1
  Sn  Sn24  1  0.57297000  0.82948700  0.65897500  1
  Sn  Sn25  1  0.57297000  0.82948700  0.17051300  1
  Sn  Sn26  1  0.07297000  0.17051300  0.34102500  1
  Sn  Sn27  1  0.57297000  0.34102500  0.17051300  1
  Sn  Sn28  1  0.07297000  0.17051300  0.82948700  1
  Sn  Sn29  1  0.07297000  0.65897500  0.82948700  1
