# generated using pymatgen
data_TlCrS2
_symmetry_space_group_name_H-M   'P 1'
_cell_length_a   7.69632327
_cell_length_b   7.69632327
_cell_length_c   7.69632379
_cell_angle_alpha   27.16832432
_cell_angle_beta   27.16832432
_cell_angle_gamma   27.16832642
_symmetry_Int_Tables_number   1
_chemical_formula_structural   TlCrS2
_chemical_formula_sum   'Tl1 Cr1 S2'
_cell_volume   83.85296280
_cell_formula_units_Z   1
loop_
 _symmetry_equiv_pos_site_id
 _symmetry_equiv_pos_as_xyz
  1  'x, y, z'
loop_
 _atom_site_type_symbol
 _atom_site_label
 _atom_site_symmetry_multiplicity
 _atom_site_fract_x
 _atom_site_fract_y
 _atom_site_fract_z
 _atom_site_occupancy
  Tl  Tl0  1  0.83372900  0.83372900  0.83372900  1
  Cr  Cr1  1  0.00017400  0.00017400  0.00017400  1
  S  S2  1  0.38978000  0.38978000  0.38978000  1
  S  S3  1  0.60961700  0.60961700  0.60961700  1
