# generated using pymatgen
data_ErGa3
_symmetry_space_group_name_H-M   'P 1'
_cell_length_a   6.21224836
_cell_length_b   6.21224836
_cell_length_c   4.60261700
_cell_angle_alpha   90.00000000
_cell_angle_beta   90.00000000
_cell_angle_gamma   120.00000385
_symmetry_Int_Tables_number   1
_chemical_formula_structural   ErGa3
_chemical_formula_sum   'Er2 Ga6'
_cell_volume   153.82717786
_cell_formula_units_Z   2
loop_
 _symmetry_equiv_pos_site_id
 _symmetry_equiv_pos_as_xyz
  1  'x, y, z'
loop_
 _atom_site_type_symbol
 _atom_site_label
 _atom_site_symmetry_multiplicity
 _atom_site_fract_x
 _atom_site_fract_y
 _atom_site_fract_z
 _atom_site_occupancy
  Er  Er0  1  0.33333300  0.66666700  0.75000000  1
  Er  Er1  1  0.66666700  0.33333300  0.25000000  1
  Ga  Ga2  1  0.15069500  0.30138900  0.25000000  1
  Ga  Ga3  1  0.69861100  0.84930500  0.25000000  1
  Ga  Ga4  1  0.15069500  0.84930500  0.25000000  1
  Ga  Ga5  1  0.84930500  0.69861100  0.75000000  1
  Ga  Ga6  1  0.30138900  0.15069500  0.75000000  1
  Ga  Ga7  1  0.84930500  0.15069500  0.75000000  1
