# generated using pymatgen
data_Nd2MgIrO6
_symmetry_space_group_name_H-M   'P 1'
_cell_length_a   5.73052600
_cell_length_b   5.52246600
_cell_length_c   9.62707603
_cell_angle_alpha   54.87808868
_cell_angle_beta   90.00000000
_cell_angle_gamma   90.00000000
_symmetry_Int_Tables_number   1
_chemical_formula_structural   Nd2MgIrO6
_chemical_formula_sum   'Nd4 Mg2 Ir2 O12'
_cell_volume   249.19421185
_cell_formula_units_Z   2
loop_
 _symmetry_equiv_pos_site_id
 _symmetry_equiv_pos_as_xyz
  1  'x, y, z'
loop_
 _atom_site_type_symbol
 _atom_site_label
 _atom_site_symmetry_multiplicity
 _atom_site_fract_x
 _atom_site_fract_y
 _atom_site_fract_z
 _atom_site_occupancy
  Nd  Nd0  1  0.55786600  0.23505700  0.75056900  1
  Nd  Nd1  1  0.94213400  0.23505700  0.25056900  1
  Nd  Nd2  1  0.44213400  0.76494300  0.24943100  1
  Nd  Nd3  1  0.05786600  0.76494300  0.74943100  1
  Mg  Mg4  1  0.50000000  0.00000000  0.50000000  1
  Mg  Mg5  1  0.00000000  0.00000000  0.00000000  1
  Ir  Ir6  1  0.00000000  0.50000000  0.50000000  1
  Ir  Ir7  1  0.50000000  0.50000000  0.00000000  1
  O  O8  1  0.79847700  0.15148800  0.54979300  1
  O  O9  1  0.70152300  0.15148800  0.04979300  1
  O  O10  1  0.20152300  0.84851200  0.45020700  1
  O  O11  1  0.29847700  0.84851200  0.95020700  1
  O  O12  1  0.97095300  0.34744500  0.74803500  1
  O  O13  1  0.52904700  0.34744500  0.24803500  1
  O  O14  1  0.02904700  0.65255500  0.25196500  1
  O  O15  1  0.47095300  0.65255500  0.75196500  1
  O  O16  1  0.29503900  0.25366800  0.55026400  1
  O  O17  1  0.20496100  0.25366800  0.05026400  1
  O  O18  1  0.70496100  0.74633200  0.44973600  1
  O  O19  1  0.79503900  0.74633200  0.94973600  1
