# generated using pymatgen
data_Dy2Fe17H3
_symmetry_space_group_name_H-M   'P 1'
_cell_length_a   8.22502900
_cell_length_b   8.56213079
_cell_length_c   8.56213079
_cell_angle_alpha   120.00000609
_cell_angle_beta   90.00000000
_cell_angle_gamma   90.00000000
_symmetry_Int_Tables_number   1
_chemical_formula_structural   Dy2Fe17H3
_chemical_formula_sum   'Dy4 Fe34 H6'
_cell_volume   522.19385614
_cell_formula_units_Z   2
loop_
 _symmetry_equiv_pos_site_id
 _symmetry_equiv_pos_as_xyz
  1  'x, y, z'
loop_
 _atom_site_type_symbol
 _atom_site_label
 _atom_site_symmetry_multiplicity
 _atom_site_fract_x
 _atom_site_fract_y
 _atom_site_fract_z
 _atom_site_occupancy
  Dy  Dy0  1  0.75000000  0.66666700  0.33333300  1
  Dy  Dy1  1  0.25000000  0.33333300  0.66666700  1
  Dy  Dy2  1  0.75000000  0.00000000  0.00000000  1
  Dy  Dy3  1  0.25000000  0.00000000  0.00000000  1
  Fe  Fe4  1  0.75000000  0.62302300  0.67093500  1
  Fe  Fe5  1  0.25000000  0.37697700  0.32906500  1
  Fe  Fe6  1  0.75000000  0.04791200  0.37697700  1
  Fe  Fe7  1  0.25000000  0.95208800  0.32906500  1
  Fe  Fe8  1  0.25000000  0.95208800  0.62302300  1
  Fe  Fe9  1  0.75000000  0.04791200  0.67093500  1
  Fe  Fe10  1  0.75000000  0.32906500  0.95208800  1
  Fe  Fe11  1  0.25000000  0.67093500  0.62302300  1
  Fe  Fe12  1  0.25000000  0.67093500  0.04791200  1
  Fe  Fe13  1  0.75000000  0.32906500  0.37697700  1
  Fe  Fe14  1  0.25000000  0.37697700  0.04791200  1
  Fe  Fe15  1  0.75000000  0.62302300  0.95208800  1
  Fe  Fe16  1  0.39480600  0.66666700  0.33333300  1
  Fe  Fe17  1  0.60519400  0.33333300  0.66666700  1
  Fe  Fe18  1  0.89480600  0.33333300  0.66666700  1
  Fe  Fe19  1  0.10519400  0.66666700  0.33333300  1
  Fe  Fe20  1  0.98414300  0.83334500  0.16665500  1
  Fe  Fe21  1  0.01585700  0.16665500  0.83334500  1
  Fe  Fe22  1  0.98414300  0.33330900  0.16665500  1
  Fe  Fe23  1  0.48414300  0.16665500  0.83334500  1
  Fe  Fe24  1  0.01585700  0.66669100  0.83334500  1
  Fe  Fe25  1  0.51585700  0.83334500  0.16665500  1
  Fe  Fe26  1  0.98414300  0.83334500  0.66669100  1
  Fe  Fe27  1  0.48414300  0.66669100  0.83334500  1
  Fe  Fe28  1  0.01585700  0.16665500  0.33330900  1
  Fe  Fe29  1  0.51585700  0.33330900  0.16665500  1
  Fe  Fe30  1  0.48414300  0.16665500  0.33330900  1
  Fe  Fe31  1  0.51585700  0.83334500  0.66669100  1
  Fe  Fe32  1  0.00000000  0.50000000  0.50000000  1
  Fe  Fe33  1  0.00000000  0.00000000  0.50000000  1
  Fe  Fe34  1  0.50000000  0.50000000  0.50000000  1
  Fe  Fe35  1  0.00000000  0.50000000  0.00000000  1
  Fe  Fe36  1  0.50000000  0.00000000  0.50000000  1
  Fe  Fe37  1  0.50000000  0.50000000  0.00000000  1
  H  H38  1  0.75000000  0.83518000  0.16482000  1
  H  H39  1  0.25000000  0.16482000  0.83518000  1
  H  H40  1  0.75000000  0.32963900  0.16482000  1
  H  H41  1  0.25000000  0.67036100  0.83518000  1
  H  H42  1  0.75000000  0.83518000  0.67036100  1
  H  H43  1  0.25000000  0.16482000  0.32963900  1
