# generated using pymatgen
data_Ca2Cr2O5
_symmetry_space_group_name_H-M   'P 1'
_cell_length_a   3.92933600
_cell_length_b   5.43198700
_cell_length_c   10.27677700
_cell_angle_alpha   90.00000000
_cell_angle_beta   90.00000000
_cell_angle_gamma   90.00000000
_symmetry_Int_Tables_number   1
_chemical_formula_structural   Ca2Cr2O5
_chemical_formula_sum   'Ca4 Cr4 O10'
_cell_volume   219.34857725
_cell_formula_units_Z   2
loop_
 _symmetry_equiv_pos_site_id
 _symmetry_equiv_pos_as_xyz
  1  'x, y, z'
loop_
 _atom_site_type_symbol
 _atom_site_label
 _atom_site_symmetry_multiplicity
 _atom_site_fract_x
 _atom_site_fract_y
 _atom_site_fract_z
 _atom_site_occupancy
  Ca  Ca0  1  0.00000000  0.20707300  0.87792900  1
  Ca  Ca1  1  0.00000000  0.79292700  0.12207100  1
  Ca  Ca2  1  0.00000000  0.70707300  0.62207100  1
  Ca  Ca3  1  0.00000000  0.29292700  0.37792900  1
  Cr  Cr4  1  0.50000000  0.23405000  0.63148000  1
  Cr  Cr5  1  0.50000000  0.76595000  0.36852000  1
  Cr  Cr6  1  0.50000000  0.26595000  0.13148000  1
  Cr  Cr7  1  0.50000000  0.73405000  0.86852000  1
  O  O8  1  0.50000000  0.50000000  0.50000000  1
  O  O9  1  0.50000000  0.10069200  0.29536600  1
  O  O10  1  0.50000000  0.60069200  0.20463400  1
  O  O11  1  0.50000000  0.39930800  0.79536600  1
  O  O12  1  0.00000000  0.29118700  0.10725500  1
  O  O13  1  0.00000000  0.70881300  0.89274500  1
  O  O14  1  0.50000000  0.89930800  0.70463400  1
  O  O15  1  0.00000000  0.20881300  0.60725500  1
  O  O16  1  0.50000000  0.00000000  0.00000000  1
  O  O17  1  0.00000000  0.79118700  0.39274500  1
