# generated using pymatgen
data_Pr2Fe14C
_symmetry_space_group_name_H-M   'P 1'
_cell_length_a   8.77659000
_cell_length_b   8.77659000
_cell_length_c   11.96674200
_cell_angle_alpha   90.00000000
_cell_angle_beta   90.00000000
_cell_angle_gamma   90.00000000
_symmetry_Int_Tables_number   1
_chemical_formula_structural   Pr2Fe14C
_chemical_formula_sum   'Pr8 Fe56 C4'
_cell_volume   921.78056942
_cell_formula_units_Z   4
loop_
 _symmetry_equiv_pos_site_id
 _symmetry_equiv_pos_as_xyz
  1  'x, y, z'
loop_
 _atom_site_type_symbol
 _atom_site_label
 _atom_site_symmetry_multiplicity
 _atom_site_fract_x
 _atom_site_fract_y
 _atom_site_fract_z
 _atom_site_occupancy
  Pr  Pr0  1  0.23900500  0.76099500  0.50000000  1
  Pr  Pr1  1  0.76099500  0.23900500  0.50000000  1
  Pr  Pr2  1  0.26099500  0.26099500  0.00000000  1
  Pr  Pr3  1  0.73900500  0.73900500  0.00000000  1
  Pr  Pr4  1  0.64248900  0.64248900  0.50000000  1
  Pr  Pr5  1  0.35751100  0.35751100  0.50000000  1
  Pr  Pr6  1  0.85751100  0.14248900  0.00000000  1
  Pr  Pr7  1  0.14248900  0.85751100  0.00000000  1
  Fe  Fe8  1  0.00000000  0.50000000  0.50000000  1
  Fe  Fe9  1  0.50000000  0.00000000  0.00000000  1
  Fe  Fe10  1  0.50000000  0.00000000  0.50000000  1
  Fe  Fe11  1  0.00000000  0.50000000  0.00000000  1
  Fe  Fe12  1  0.50000000  0.50000000  0.10660900  1
  Fe  Fe13  1  0.00000000  0.00000000  0.60660900  1
  Fe  Fe14  1  0.50000000  0.50000000  0.89339100  1
  Fe  Fe15  1  0.00000000  0.00000000  0.39339100  1
  Fe  Fe16  1  0.18307100  0.81692900  0.25484700  1
  Fe  Fe17  1  0.81692900  0.18307100  0.25484700  1
  Fe  Fe18  1  0.31692900  0.31692900  0.75484700  1
  Fe  Fe19  1  0.68307100  0.68307100  0.75484700  1
  Fe  Fe20  1  0.81692900  0.18307100  0.74515300  1
  Fe  Fe21  1  0.18307100  0.81692900  0.74515300  1
  Fe  Fe22  1  0.68307100  0.68307100  0.24515300  1
  Fe  Fe23  1  0.31692900  0.31692900  0.24515300  1
  Fe  Fe24  1  0.40182500  0.59817500  0.29102800  1
  Fe  Fe25  1  0.59817500  0.40182500  0.29102800  1
  Fe  Fe26  1  0.09817500  0.09817500  0.79102800  1
  Fe  Fe27  1  0.90182500  0.90182500  0.79102800  1
  Fe  Fe28  1  0.59817500  0.40182500  0.70897200  1
  Fe  Fe29  1  0.40182500  0.59817500  0.70897200  1
  Fe  Fe30  1  0.90182500  0.90182500  0.20897200  1
  Fe  Fe31  1  0.09817500  0.09817500  0.20897200  1
  Fe  Fe32  1  0.13992400  0.53611400  0.32252800  1
  Fe  Fe33  1  0.86007600  0.46388600  0.32252800  1
  Fe  Fe34  1  0.36007600  0.03611400  0.82252800  1
  Fe  Fe35  1  0.63992400  0.96388600  0.82252800  1
  Fe  Fe36  1  0.86007600  0.46388600  0.67747200  1
  Fe  Fe37  1  0.13992400  0.53611400  0.67747200  1
  Fe  Fe38  1  0.63992400  0.96388600  0.17747200  1
  Fe  Fe39  1  0.36007600  0.03611400  0.17747200  1
  Fe  Fe40  1  0.53611400  0.13992400  0.32252800  1
  Fe  Fe41  1  0.46388600  0.86007600  0.32252800  1
  Fe  Fe42  1  0.03611400  0.36007600  0.82252800  1
  Fe  Fe43  1  0.96388600  0.63992400  0.82252800  1
  Fe  Fe44  1  0.46388600  0.86007600  0.67747200  1
  Fe  Fe45  1  0.53611400  0.13992400  0.67747200  1
  Fe  Fe46  1  0.96388600  0.63992400  0.17747200  1
  Fe  Fe47  1  0.03611400  0.36007600  0.17747200  1
  Fe  Fe48  1  0.93371200  0.72546200  0.37896300  1
  Fe  Fe49  1  0.06628800  0.27453800  0.37896300  1
  Fe  Fe50  1  0.56628800  0.22546200  0.87896300  1
  Fe  Fe51  1  0.43371200  0.77453800  0.87896300  1
  Fe  Fe52  1  0.06628800  0.27453800  0.62103700  1
  Fe  Fe53  1  0.93371200  0.72546200  0.62103700  1
  Fe  Fe54  1  0.43371200  0.77453800  0.12103700  1
  Fe  Fe55  1  0.56628800  0.22546200  0.12103700  1
  Fe  Fe56  1  0.72546200  0.93371200  0.37896300  1
  Fe  Fe57  1  0.27453800  0.06628800  0.37896300  1
  Fe  Fe58  1  0.22546200  0.56628800  0.87896300  1
  Fe  Fe59  1  0.77453800  0.43371200  0.87896300  1
  Fe  Fe60  1  0.27453800  0.06628800  0.62103700  1
  Fe  Fe61  1  0.72546200  0.93371200  0.62103700  1
  Fe  Fe62  1  0.77453800  0.43371200  0.12103700  1
  Fe  Fe63  1  0.22546200  0.56628800  0.12103700  1
  C  C64  1  0.87503500  0.87503500  0.50000000  1
  C  C65  1  0.12496500  0.12496500  0.50000000  1
  C  C66  1  0.62496500  0.37503500  0.00000000  1
  C  C67  1  0.37503500  0.62496500  0.00000000  1
