# generated using pymatgen
data_ScCrO3
_symmetry_space_group_name_H-M   'P 1'
_cell_length_a   5.08888400
_cell_length_b   5.40796100
_cell_length_c   7.55396800
_cell_angle_alpha   89.99998182
_cell_angle_beta   90.00002643
_cell_angle_gamma   90.00002185
_symmetry_Int_Tables_number   1
_chemical_formula_structural   ScCrO3
_chemical_formula_sum   'Sc4 Cr4 O12'
_cell_volume   207.88887214
_cell_formula_units_Z   4
loop_
 _symmetry_equiv_pos_site_id
 _symmetry_equiv_pos_as_xyz
  1  'x, y, z'
loop_
 _atom_site_type_symbol
 _atom_site_label
 _atom_site_symmetry_multiplicity
 _atom_site_fract_x
 _atom_site_fract_y
 _atom_site_fract_z
 _atom_site_occupancy
  Sc  Sc0  1  0.97387300  0.06909500  0.25000000  1
  Sc  Sc1  1  0.47387200  0.43090300  0.75000000  1
  Sc  Sc2  1  0.52612900  0.56909700  0.25000000  1
  Sc  Sc3  1  0.02612800  0.93090500  0.75000000  1
  Cr  Cr4  1  0.50000100  0.00000100  0.00000000  1
  Cr  Cr5  1  0.50000000  0.00000000  0.50000000  1
  Cr  Cr6  1  0.00000000  0.50000300  0.00000200  1
  Cr  Cr7  1  0.99999800  0.49999900  0.49999900  1
  O  O8  1  0.14171400  0.43622700  0.25000000  1
  O  O9  1  0.64171500  0.06377400  0.75000000  1
  O  O10  1  0.35828500  0.93622600  0.25000000  1
  O  O11  1  0.85828700  0.56377300  0.75000000  1
  O  O12  1  0.68555000  0.30880800  0.42674600  1
  O  O13  1  0.18555000  0.19119400  0.57325400  1
  O  O14  1  0.81445000  0.80880500  0.07325400  1
  O  O15  1  0.31445000  0.69119200  0.92674700  1
  O  O16  1  0.31445000  0.69119200  0.57325400  1
  O  O17  1  0.81445000  0.80880500  0.42674600  1
  O  O18  1  0.18555000  0.19119400  0.92674600  1
  O  O19  1  0.68555000  0.30880800  0.07325300  1
