# generated using pymatgen
data_Mn2NiO4
_symmetry_space_group_name_H-M   'P 1'
_cell_length_a   6.21125452
_cell_length_b   6.21125452
_cell_length_c   6.21125452
_cell_angle_alpha   124.53740183
_cell_angle_beta   123.42634800
_cell_angle_gamma   83.23434745
_symmetry_Int_Tables_number   1
_chemical_formula_structural   Mn2NiO4
_chemical_formula_sum   'Mn4 Ni2 O8'
_cell_volume   158.01464713
_cell_formula_units_Z   2
loop_
 _symmetry_equiv_pos_site_id
 _symmetry_equiv_pos_as_xyz
  1  'x, y, z'
loop_
 _atom_site_type_symbol
 _atom_site_label
 _atom_site_symmetry_multiplicity
 _atom_site_fract_x
 _atom_site_fract_y
 _atom_site_fract_z
 _atom_site_occupancy
  Mn  Mn0  1  0.50000000  0.50000000  0.00000000  1
  Mn  Mn1  1  0.50000000  0.00000000  0.00000000  1
  Mn  Mn2  1  0.50000000  0.50000000  0.50000000  1
  Mn  Mn3  1  0.00000000  0.50000000  0.50000000  1
  Ni  Ni4  1  0.88039200  0.13039200  0.75000000  1
  Ni  Ni5  1  0.11960800  0.86960800  0.25000000  1
  O  O6  1  0.72520500  0.74876600  0.97643900  1
  O  O7  1  0.74905600  0.27036300  0.02130700  1
  O  O8  1  0.72767300  0.25123400  0.47643900  1
  O  O9  1  0.74905600  0.72774900  0.47869300  1
  O  O10  1  0.27232700  0.74876600  0.52356100  1
  O  O11  1  0.25094400  0.27225100  0.52130700  1
  O  O12  1  0.27479500  0.25123400  0.02356100  1
  O  O13  1  0.25094400  0.72963700  0.97869300  1
