# generated using pymatgen
data_YbSe
_symmetry_space_group_name_H-M   'P 1'
_cell_length_a   5.00455992
_cell_length_b   5.00455992
_cell_length_c   5.87023500
_cell_angle_alpha   90.00000000
_cell_angle_beta   90.00000000
_cell_angle_gamma   119.99999892
_symmetry_Int_Tables_number   1
_chemical_formula_structural   YbSe
_chemical_formula_sum   'Yb2 Se2'
_cell_volume   127.32623886
_cell_formula_units_Z   2
loop_
 _symmetry_equiv_pos_site_id
 _symmetry_equiv_pos_as_xyz
  1  'x, y, z'
loop_
 _atom_site_type_symbol
 _atom_site_label
 _atom_site_symmetry_multiplicity
 _atom_site_fract_x
 _atom_site_fract_y
 _atom_site_fract_z
 _atom_site_occupancy
  Yb  Yb0  1  0.66666700  0.33333300  0.25000000  1
  Yb  Yb1  1  0.33333300  0.66666700  0.75000000  1
  Se  Se2  1  0.66666700  0.33333300  0.75000000  1
  Se  Se3  1  0.33333300  0.66666700  0.25000000  1
