# generated using pymatgen
data_LuFeO3
_symmetry_space_group_name_H-M   'P 1'
_cell_length_a   6.03016468
_cell_length_b   6.03016468
_cell_length_c   11.74142900
_cell_angle_alpha   90.00000000
_cell_angle_beta   90.00000000
_cell_angle_gamma   120.00000748
_symmetry_Int_Tables_number   1
_chemical_formula_structural   LuFeO3
_chemical_formula_sum   'Lu6 Fe6 O18'
_cell_volume   369.75146271
_cell_formula_units_Z   6
loop_
 _symmetry_equiv_pos_site_id
 _symmetry_equiv_pos_as_xyz
  1  'x, y, z'
loop_
 _atom_site_type_symbol
 _atom_site_label
 _atom_site_symmetry_multiplicity
 _atom_site_fract_x
 _atom_site_fract_y
 _atom_site_fract_z
 _atom_site_occupancy
  Lu  Lu0  1  0.00000000  0.00000000  0.22347300  1
  Lu  Lu1  1  0.00000000  0.00000000  0.72347300  1
  Lu  Lu2  1  0.66666700  0.33333300  0.26680700  1
  Lu  Lu3  1  0.33333300  0.66666700  0.26680700  1
  Lu  Lu4  1  0.33333300  0.66666700  0.76680700  1
  Lu  Lu5  1  0.66666700  0.33333300  0.76680700  1
  Fe  Fe6  1  0.66602300  0.00000000  0.49882100  1
  Fe  Fe7  1  0.33397700  0.33397700  0.49882100  1
  Fe  Fe8  1  0.00000000  0.66602300  0.49882100  1
  Fe  Fe9  1  0.33397700  0.00000000  0.99882100  1
  Fe  Fe10  1  0.66602300  0.66602300  0.99882100  1
  Fe  Fe11  1  0.00000000  0.33397700  0.99882100  1
  O  O12  1  0.69526600  0.00000000  0.33187200  1
  O  O13  1  0.30473400  0.30473400  0.33187200  1
  O  O14  1  0.00000000  0.69526600  0.33187200  1
  O  O15  1  0.30473400  0.00000000  0.83187200  1
  O  O16  1  0.69526600  0.69526600  0.83187200  1
  O  O17  1  0.00000000  0.30473400  0.83187200  1
  O  O18  1  0.36186400  0.00000000  0.16389400  1
  O  O19  1  0.63813600  0.63813600  0.16389400  1
  O  O20  1  0.00000000  0.36186400  0.16389400  1
  O  O21  1  0.63813600  0.00000000  0.66389400  1
  O  O22  1  0.36186400  0.36186400  0.66389400  1
  O  O23  1  0.00000000  0.63813600  0.66389400  1
  O  O24  1  0.00000000  0.00000000  0.02499500  1
  O  O25  1  0.00000000  0.00000000  0.52499500  1
  O  O26  1  0.66666700  0.33333300  0.47657100  1
  O  O27  1  0.33333300  0.66666700  0.47657100  1
  O  O28  1  0.33333300  0.66666700  0.97657100  1
  O  O29  1  0.66666700  0.33333300  0.97657100  1
