# generated using pymatgen
data_LaSnPt
_symmetry_space_group_name_H-M   'P 1'
_cell_length_a   4.70744300
_cell_length_b   7.62718500
_cell_length_c   8.17362300
_cell_angle_alpha   90.00000000
_cell_angle_beta   90.00000000
_cell_angle_gamma   90.00000000
_symmetry_Int_Tables_number   1
_chemical_formula_structural   LaSnPt
_chemical_formula_sum   'La4 Sn4 Pt4'
_cell_volume   293.47016282
_cell_formula_units_Z   4
loop_
 _symmetry_equiv_pos_site_id
 _symmetry_equiv_pos_as_xyz
  1  'x, y, z'
loop_
 _atom_site_type_symbol
 _atom_site_label
 _atom_site_symmetry_multiplicity
 _atom_site_fract_x
 _atom_site_fract_y
 _atom_site_fract_z
 _atom_site_occupancy
  La  La0  1  0.75000000  0.48455800  0.80552300  1
  La  La1  1  0.25000000  0.01544200  0.30552300  1
  La  La2  1  0.75000000  0.98455800  0.69447700  1
  La  La3  1  0.25000000  0.51544200  0.19447700  1
  Sn  Sn4  1  0.25000000  0.67349300  0.58264200  1
  Sn  Sn5  1  0.25000000  0.17349300  0.91735800  1
  Sn  Sn6  1  0.75000000  0.32650700  0.41735800  1
  Sn  Sn7  1  0.75000000  0.82650700  0.08264200  1
  Pt  Pt8  1  0.25000000  0.78897000  0.90801200  1
  Pt  Pt9  1  0.25000000  0.28897000  0.59198800  1
  Pt  Pt10  1  0.75000000  0.71103000  0.40801200  1
  Pt  Pt11  1  0.75000000  0.21103000  0.09198800  1
