# generated using pymatgen
data_La4Cu3MoO12
_symmetry_space_group_name_H-M   'P 1'
_cell_length_a   10.94717900
_cell_length_b   6.93994600
_cell_length_c   7.99152664
_cell_angle_alpha   89.92077627
_cell_angle_beta   90.00000000
_cell_angle_gamma   90.00000000
_symmetry_Int_Tables_number   1
_chemical_formula_structural   La4Cu3MoO12
_chemical_formula_sum   'La8 Cu6 Mo2 O24'
_cell_volume   607.13832332
_cell_formula_units_Z   2
loop_
 _symmetry_equiv_pos_site_id
 _symmetry_equiv_pos_as_xyz
  1  'x, y, z'
loop_
 _atom_site_type_symbol
 _atom_site_label
 _atom_site_symmetry_multiplicity
 _atom_site_fract_x
 _atom_site_fract_y
 _atom_site_fract_z
 _atom_site_occupancy
  La  La0  1  0.49843900  0.76245000  0.63005500  1
  La  La1  1  0.99785900  0.24877900  0.87951300  1
  La  La2  1  0.00156100  0.76245000  0.63005500  1
  La  La3  1  0.99843900  0.23755000  0.36994500  1
  La  La4  1  0.00214100  0.75122100  0.12048700  1
  La  La5  1  0.49785900  0.75122100  0.12048700  1
  La  La6  1  0.50156100  0.23755000  0.36994500  1
  La  La7  1  0.50214100  0.24877900  0.87951300  1
  Cu  Cu8  1  0.25000000  0.10980500  0.09077100  1
  Cu  Cu9  1  0.75000000  0.88440300  0.34327600  1
  Cu  Cu10  1  0.25000000  0.11559700  0.65672400  1
  Cu  Cu11  1  0.25000000  0.54407700  0.87331600  1
  Cu  Cu12  1  0.75000000  0.45592300  0.12668400  1
  Cu  Cu13  1  0.75000000  0.89019500  0.90922900  1
  Mo  Mo14  1  0.25000000  0.57919600  0.37757200  1
  Mo  Mo15  1  0.75000000  0.42080400  0.62242800  1
  O  O16  1  0.25000000  0.71542500  0.57617900  1
  O  O17  1  0.07362100  0.58015100  0.37651500  1
  O  O18  1  0.58443900  0.41569400  0.12553300  1
  O  O19  1  0.91757700  0.91604300  0.37175900  1
  O  O20  1  0.41655000  0.08502600  0.12245300  1
  O  O21  1  0.41757700  0.08395700  0.62824100  1
  O  O22  1  0.08443900  0.58430600  0.87446700  1
  O  O23  1  0.75000000  0.68821600  0.61974200  1
  O  O24  1  0.75000000  0.28457500  0.42382100  1
  O  O25  1  0.91655000  0.91497400  0.87754700  1
  O  O26  1  0.25000000  0.31178400  0.38025800  1
  O  O27  1  0.58345000  0.91497400  0.87754700  1
  O  O28  1  0.92637900  0.41984900  0.62348500  1
  O  O29  1  0.75000000  0.28986800  0.82406700  1
  O  O30  1  0.08345000  0.08502600  0.12245300  1
  O  O31  1  0.25000000  0.26261600  0.87500700  1
  O  O32  1  0.08242300  0.08395700  0.62824100  1
  O  O33  1  0.42637900  0.58015100  0.37651500  1
  O  O34  1  0.57362100  0.41984900  0.62348500  1
  O  O35  1  0.41556100  0.58430600  0.87446700  1
  O  O36  1  0.58242300  0.91604300  0.37175900  1
  O  O37  1  0.91556100  0.41569400  0.12553300  1
  O  O38  1  0.25000000  0.71013200  0.17593300  1
  O  O39  1  0.75000000  0.73738400  0.12499300  1
