# generated using pymatgen
data_Sm2Mn3(SbS3)4
_symmetry_space_group_name_H-M   'P 1'
_cell_length_a   10.17014729
_cell_length_b   10.17014729
_cell_length_c   14.89157908
_cell_angle_alpha   54.25950315
_cell_angle_beta   54.25950315
_cell_angle_gamma   21.93045013
_symmetry_Int_Tables_number   1
_chemical_formula_structural   Sm2Mn3(SbS3)4
_chemical_formula_sum   'Sm2 Mn3 Sb4 S12'
_cell_volume   462.36009580
_cell_formula_units_Z   1
loop_
 _symmetry_equiv_pos_site_id
 _symmetry_equiv_pos_as_xyz
  1  'x, y, z'
loop_
 _atom_site_type_symbol
 _atom_site_label
 _atom_site_symmetry_multiplicity
 _atom_site_fract_x
 _atom_site_fract_y
 _atom_site_fract_z
 _atom_site_occupancy
  Sm  Sm0  1  0.24080500  0.24080500  0.86271000  1
  Sm  Sm1  1  0.75919500  0.75919500  0.13729000  1
  Mn  Mn2  1  0.19844900  0.19844900  0.62182300  1
  Mn  Mn3  1  0.80155100  0.80155100  0.37817700  1
  Mn  Mn4  1  0.00000000  0.00000000  0.00000000  1
  Sb  Sb5  1  0.10661000  0.10661000  0.45171000  1
  Sb  Sb6  1  0.89339000  0.89339000  0.54829000  1
  Sb  Sb7  1  0.45920700  0.45920700  0.81626600  1
  Sb  Sb8  1  0.54079300  0.54079300  0.18373400  1
  S  S9  1  0.05729900  0.05729900  0.80242100  1
  S  S10  1  0.94270100  0.94270100  0.19757900  1
  S  S11  1  0.60198200  0.60198200  0.97673800  1
  S  S12  1  0.39801800  0.39801800  0.02326200  1
  S  S13  1  0.82955600  0.82955600  0.89797900  1
  S  S14  1  0.17044400  0.17044400  0.10202100  1
  S  S15  1  0.40975100  0.40975100  0.65268100  1
  S  S16  1  0.59024900  0.59024900  0.34731900  1
  S  S17  1  0.25772800  0.25772800  0.29030600  1
  S  S18  1  0.74227200  0.74227200  0.70969400  1
  S  S19  1  0.34169700  0.34169700  0.45379900  1
  S  S20  1  0.65830300  0.65830300  0.54620100  1
