# generated using pymatgen
data_SbF6
_symmetry_space_group_name_H-M   'P 1'
_cell_length_a   7.64330600
_cell_length_b   10.38707800
_cell_length_c   12.73603500
_cell_angle_alpha   90.00000000
_cell_angle_beta   90.00000000
_cell_angle_gamma   90.00000000
_symmetry_Int_Tables_number   1
_chemical_formula_structural   SbF6
_chemical_formula_sum   'Sb8 F48'
_cell_volume   1011.13439499
_cell_formula_units_Z   8
loop_
 _symmetry_equiv_pos_site_id
 _symmetry_equiv_pos_as_xyz
  1  'x, y, z'
loop_
 _atom_site_type_symbol
 _atom_site_label
 _atom_site_symmetry_multiplicity
 _atom_site_fract_x
 _atom_site_fract_y
 _atom_site_fract_z
 _atom_site_occupancy
  Sb  Sb0  1  0.88642900  0.78027300  0.78592000  1
  Sb  Sb1  1  0.61357100  0.21972700  0.28592000  1
  Sb  Sb2  1  0.38642900  0.71972700  0.21408000  1
  Sb  Sb3  1  0.11357100  0.28027300  0.71408000  1
  Sb  Sb4  1  0.58210000  0.58371900  0.58688500  1
  Sb  Sb5  1  0.91790000  0.41628100  0.08688500  1
  Sb  Sb6  1  0.08210000  0.91628100  0.41311500  1
  Sb  Sb7  1  0.41790000  0.08371900  0.91311500  1
  F  F8  1  0.41397800  0.59666900  0.95526200  1
  F  F9  1  0.08602200  0.40333100  0.45526200  1
  F  F10  1  0.91397800  0.90333100  0.04473800  1
  F  F11  1  0.58602200  0.09666900  0.54473800  1
  F  F12  1  0.80338600  0.66162100  0.66852100  1
  F  F13  1  0.69661400  0.33837900  0.16852100  1
  F  F14  1  0.30338600  0.83837900  0.33147900  1
  F  F15  1  0.19661400  0.16162100  0.83147900  1
  F  F16  1  0.05501900  0.85558800  0.69663300  1
  F  F17  1  0.44498100  0.14441200  0.19663300  1
  F  F18  1  0.55501900  0.64441200  0.30336700  1
  F  F19  1  0.94498100  0.35558800  0.80336700  1
  F  F20  1  0.05162200  0.65259600  0.82376000  1
  F  F21  1  0.44837800  0.34740400  0.32376000  1
  F  F22  1  0.55162200  0.84740400  0.17624000  1
  F  F23  1  0.94837800  0.15259600  0.67624000  1
  F  F24  1  0.96989300  0.90295600  0.89596200  1
  F  F25  1  0.53010700  0.09704400  0.39596200  1
  F  F26  1  0.46989300  0.59704400  0.10403800  1
  F  F27  1  0.03010700  0.40295600  0.60403800  1
  F  F28  1  0.72227800  0.70430200  0.87936300  1
  F  F29  1  0.77772200  0.29569800  0.37936300  1
  F  F30  1  0.22227800  0.79569800  0.12063700  1
  F  F31  1  0.27772200  0.20430200  0.62063700  1
  F  F32  1  0.71782200  0.90046300  0.73918100  1
  F  F33  1  0.78217800  0.09953700  0.23918100  1
  F  F34  1  0.21782200  0.59953700  0.26081900  1
  F  F35  1  0.28217800  0.40046300  0.76081900  1
  F  F36  1  0.75093500  0.54506900  0.48142900  1
  F  F37  1  0.74906500  0.45493100  0.98142900  1
  F  F38  1  0.25093500  0.95493100  0.51857100  1
  F  F39  1  0.24906500  0.04506900  0.01857100  1
  F  F40  1  0.05880200  0.74989300  0.47465600  1
  F  F41  1  0.44119800  0.25010700  0.97465600  1
  F  F42  1  0.55880200  0.75010700  0.52534400  1
  F  F43  1  0.94119800  0.24989300  0.02534400  1
  F  F44  1  0.39016500  0.50953300  0.51542000  1
  F  F45  1  0.10983500  0.49046700  0.01542000  1
  F  F46  1  0.89016500  0.99046700  0.48458000  1
  F  F47  1  0.60983500  0.00953300  0.98458000  1
  F  F48  1  0.45143600  0.64390500  0.70360500  1
  F  F49  1  0.04856400  0.35609500  0.20360500  1
  F  F50  1  0.95143600  0.85609500  0.29639500  1
  F  F51  1  0.54856400  0.14390500  0.79639500  1
  F  F52  1  0.64138700  0.42881600  0.65771700  1
  F  F53  1  0.85861300  0.57118400  0.15771700  1
  F  F54  1  0.14138700  0.07118400  0.34228300  1
  F  F55  1  0.35861300  0.92881600  0.84228300  1
