# generated using pymatgen
data_Tb5Si4
_symmetry_space_group_name_H-M   'P 1'
_cell_length_a   7.46248200
_cell_length_b   7.71894300
_cell_length_c   14.68791900
_cell_angle_alpha   90.00000000
_cell_angle_beta   90.00000000
_cell_angle_gamma   90.00000000
_symmetry_Int_Tables_number   1
_chemical_formula_structural   Tb5Si4
_chemical_formula_sum   'Tb20 Si16'
_cell_volume   846.06046051
_cell_formula_units_Z   4
loop_
 _symmetry_equiv_pos_site_id
 _symmetry_equiv_pos_as_xyz
  1  'x, y, z'
loop_
 _atom_site_type_symbol
 _atom_site_label
 _atom_site_symmetry_multiplicity
 _atom_site_fract_x
 _atom_site_fract_y
 _atom_site_fract_z
 _atom_site_occupancy
  Tb  Tb0  1  0.67860000  0.18107200  0.62267300  1
  Tb  Tb1  1  0.17860000  0.31892800  0.87732700  1
  Tb  Tb2  1  0.32140000  0.81892800  0.12267300  1
  Tb  Tb3  1  0.82140000  0.68107200  0.37732700  1
  Tb  Tb4  1  0.32140000  0.81892800  0.37732700  1
  Tb  Tb5  1  0.82140000  0.68107200  0.12267300  1
  Tb  Tb6  1  0.67860000  0.18107200  0.87732700  1
  Tb  Tb7  1  0.17860000  0.31892800  0.62267300  1
  Tb  Tb8  1  0.52752300  0.68347200  0.59813200  1
  Tb  Tb9  1  0.02752300  0.81652800  0.90186800  1
  Tb  Tb10  1  0.47247700  0.31652800  0.09813200  1
  Tb  Tb11  1  0.97247700  0.18347200  0.40186800  1
  Tb  Tb12  1  0.47247700  0.31652800  0.40186800  1
  Tb  Tb13  1  0.97247700  0.18347200  0.09813200  1
  Tb  Tb14  1  0.52752300  0.68347200  0.90186800  1
  Tb  Tb15  1  0.02752300  0.81652800  0.59813200  1
  Tb  Tb16  1  0.84839300  0.51369900  0.75000000  1
  Tb  Tb17  1  0.34839300  0.98630100  0.75000000  1
  Tb  Tb18  1  0.15160700  0.48630100  0.25000000  1
  Tb  Tb19  1  0.65160700  0.01369900  0.25000000  1
  Si  Si20  1  0.64682700  0.97237300  0.45991900  1
  Si  Si21  1  0.14682700  0.52762700  0.04008100  1
  Si  Si22  1  0.35317300  0.02762700  0.95991900  1
  Si  Si23  1  0.85317300  0.47237300  0.54008100  1
  Si  Si24  1  0.35317300  0.02762700  0.54008100  1
  Si  Si25  1  0.85317300  0.47237300  0.95991900  1
  Si  Si26  1  0.64682700  0.97237300  0.04008100  1
  Si  Si27  1  0.14682700  0.52762700  0.45991900  1
  Si  Si28  1  0.47365900  0.39723600  0.75000000  1
  Si  Si29  1  0.97365900  0.10276400  0.75000000  1
  Si  Si30  1  0.52634100  0.60276400  0.25000000  1
  Si  Si31  1  0.02634100  0.89723600  0.25000000  1
  Si  Si32  1  0.73195500  0.87534000  0.75000000  1
  Si  Si33  1  0.23195500  0.62466000  0.75000000  1
  Si  Si34  1  0.26804500  0.12466000  0.25000000  1
  Si  Si35  1  0.76804500  0.37534000  0.25000000  1
