# generated using pymatgen
data_CeSbRh
_symmetry_space_group_name_H-M   'P 1'
_cell_length_a   5.87011765
_cell_length_b   5.87011765
_cell_length_c   7.23478704
_cell_angle_alpha   53.85233826
_cell_angle_beta   53.85233826
_cell_angle_gamma   44.21696773
_symmetry_Int_Tables_number   1
_chemical_formula_structural   CeSbRh
_chemical_formula_sum   'Ce2 Sb2 Rh2'
_cell_volume   134.06425629
_cell_formula_units_Z   2
loop_
 _symmetry_equiv_pos_site_id
 _symmetry_equiv_pos_as_xyz
  1  'x, y, z'
loop_
 _atom_site_type_symbol
 _atom_site_label
 _atom_site_symmetry_multiplicity
 _atom_site_fract_x
 _atom_site_fract_y
 _atom_site_fract_z
 _atom_site_occupancy
  Ce  Ce0  1  0.56307300  0.56307300  0.66755000  1
  Ce  Ce1  1  0.43692700  0.43692700  0.33245000  1
  Sb  Sb2  1  0.83256600  0.83256600  0.08437400  1
  Sb  Sb3  1  0.16743400  0.16743400  0.91562600  1
  Rh  Rh4  1  0.16481200  0.16481200  0.30615900  1
  Rh  Rh5  1  0.83518800  0.83518800  0.69384100  1
