# generated using pymatgen
data_FeB
_symmetry_space_group_name_H-M   'P 1'
_cell_length_a   2.94861200
_cell_length_b   3.99755400
_cell_length_c   5.40819500
_cell_angle_alpha   90.00000000
_cell_angle_beta   90.00000000
_cell_angle_gamma   90.00000000
_symmetry_Int_Tables_number   1
_chemical_formula_structural   FeB
_chemical_formula_sum   'Fe4 B4'
_cell_volume   63.74766915
_cell_formula_units_Z   4
loop_
 _symmetry_equiv_pos_site_id
 _symmetry_equiv_pos_as_xyz
  1  'x, y, z'
loop_
 _atom_site_type_symbol
 _atom_site_label
 _atom_site_symmetry_multiplicity
 _atom_site_fract_x
 _atom_site_fract_y
 _atom_site_fract_z
 _atom_site_occupancy
  Fe  Fe0  1  0.25000000  0.37992700  0.67814500  1
  Fe  Fe1  1  0.75000000  0.62007300  0.32185500  1
  Fe  Fe2  1  0.75000000  0.87992700  0.82185500  1
  Fe  Fe3  1  0.25000000  0.12007300  0.17814500  1
  B  B4  1  0.25000000  0.88132600  0.53423400  1
  B  B5  1  0.75000000  0.11867400  0.46576600  1
  B  B6  1  0.75000000  0.38132600  0.96576600  1
  B  B7  1  0.25000000  0.61867400  0.03423400  1
