# generated using pymatgen
data_SrRuO3
_symmetry_space_group_name_H-M   'P 1'
_cell_length_a   13.15976900
_cell_length_b   13.16760300
_cell_length_c   17.98677000
_cell_angle_alpha   90.00000000
_cell_angle_beta   90.00000000
_cell_angle_gamma   90.00000000
_symmetry_Int_Tables_number   1
_chemical_formula_structural   SrRuO3
_chemical_formula_sum   'Sr4 Ru4 O12'
_cell_volume   3116.79451877
_cell_formula_units_Z   4
loop_
 _symmetry_equiv_pos_site_id
 _symmetry_equiv_pos_as_xyz
  1  'x, y, z'
loop_
 _atom_site_type_symbol
 _atom_site_label
 _atom_site_symmetry_multiplicity
 _atom_site_fract_x
 _atom_site_fract_y
 _atom_site_fract_z
 _atom_site_occupancy
  Sr  Sr0  1  0.50477700  0.51050300  0.25000000  1
  Sr  Sr1  1  0.99522300  0.01050300  0.25000000  1
  Sr  Sr2  1  0.49522300  0.48949700  0.75000000  1
  Sr  Sr3  1  0.00477700  0.98949700  0.75000000  1
  Ru  Ru4  1  0.00000000  0.50000000  0.00000000  1
  Ru  Ru5  1  0.50000000  0.00000000  0.50000000  1
  Ru  Ru6  1  0.00000000  0.50000000  0.50000000  1
  Ru  Ru7  1  0.50000000  0.00000000  0.00000000  1
  O  O8  1  0.95774900  0.97653400  0.00219100  1
  O  O9  1  0.54225100  0.47653400  0.49780900  1
  O  O10  1  0.04225100  0.02346600  0.50219100  1
  O  O11  1  0.45774900  0.52346600  0.99780900  1
  O  O12  1  0.04225100  0.02346600  0.99780900  1
  O  O13  1  0.45774900  0.52346600  0.50219100  1
  O  O14  1  0.95774900  0.97653400  0.49780900  1
  O  O15  1  0.54225100  0.47653400  0.00219100  1
  O  O16  1  0.55842200  0.99402200  0.25000000  1
  O  O17  1  0.94157800  0.49402200  0.25000000  1
  O  O18  1  0.44157800  0.00597800  0.75000000  1
  O  O19  1  0.05842200  0.50597800  0.75000000  1
