# generated using pymatgen
data_MnO
_symmetry_space_group_name_H-M   'P 1'
_cell_length_a   3.46772219
_cell_length_b   5.90235588
_cell_length_c   5.45452000
_cell_angle_alpha   89.99974505
_cell_angle_beta   89.99990037
_cell_angle_gamma   90.01986462
_symmetry_Int_Tables_number   1
_chemical_formula_structural   MnO
_chemical_formula_sum   'Mn4 O4'
_cell_volume   111.64163857
_cell_formula_units_Z   4
loop_
 _symmetry_equiv_pos_site_id
 _symmetry_equiv_pos_as_xyz
  1  'x, y, z'
loop_
 _atom_site_type_symbol
 _atom_site_label
 _atom_site_symmetry_multiplicity
 _atom_site_fract_x
 _atom_site_fract_y
 _atom_site_fract_z
 _atom_site_occupancy
  Mn  Mn0  1  0.49990400  0.82960000  0.49841700  1
  Mn  Mn1  1  0.50009500  0.17039500  0.99843000  1
  Mn  Mn2  1  0.99978200  0.32953100  0.49837100  1
  Mn  Mn3  1  0.00021900  0.67047900  0.99836300  1
  O  O4  1  0.00005400  0.33442600  0.11514800  1
  O  O5  1  0.50008600  0.83438900  0.11520000  1
  O  O6  1  0.49991500  0.16560800  0.61520300  1
  O  O7  1  0.99994700  0.66557300  0.61514700  1
