# generated using pymatgen
data_Lu2Fe17
_symmetry_space_group_name_H-M   'P 1'
_cell_length_a   8.28743500
_cell_length_b   8.32691529
_cell_length_c   8.32691529
_cell_angle_alpha   120.01367561
_cell_angle_beta   90.00000000
_cell_angle_gamma   90.00000000
_symmetry_Int_Tables_number   1
_chemical_formula_structural   Lu2Fe17
_chemical_formula_sum   'Lu4 Fe34'
_cell_volume   497.57573784
_cell_formula_units_Z   2
loop_
 _symmetry_equiv_pos_site_id
 _symmetry_equiv_pos_as_xyz
  1  'x, y, z'
loop_
 _atom_site_type_symbol
 _atom_site_label
 _atom_site_symmetry_multiplicity
 _atom_site_fract_x
 _atom_site_fract_y
 _atom_site_fract_z
 _atom_site_occupancy
  Lu  Lu0  1  0.75000000  0.99997900  0.00002100  1
  Lu  Lu1  1  0.25000000  0.00002100  0.99997900  1
  Lu  Lu2  1  0.25000000  0.66664000  0.33336000  1
  Lu  Lu3  1  0.75000000  0.33336000  0.66664000  1
  Fe  Fe4  1  0.60766700  0.66667800  0.33332200  1
  Fe  Fe5  1  0.39233300  0.33332200  0.66667800  1
  Fe  Fe6  1  0.10766700  0.33332200  0.66667800  1
  Fe  Fe7  1  0.89233300  0.66667800  0.33332200  1
  Fe  Fe8  1  0.50000000  0.50000000  0.00000000  1
  Fe  Fe9  1  0.50000000  0.50000000  0.50000000  1
  Fe  Fe10  1  0.50000000  0.00000000  0.50000000  1
  Fe  Fe11  1  0.00000000  0.50000000  0.00000000  1
  Fe  Fe12  1  0.00000000  0.50000000  0.50000000  1
  Fe  Fe13  1  0.00000000  0.00000000  0.50000000  1
  Fe  Fe14  1  0.75000000  0.67069100  0.03137300  1
  Fe  Fe15  1  0.75000000  0.36083700  0.32947200  1
  Fe  Fe16  1  0.75000000  0.96846700  0.63921800  1
  Fe  Fe17  1  0.75000000  0.36078200  0.03153300  1
  Fe  Fe18  1  0.75000000  0.96862700  0.32930900  1
  Fe  Fe19  1  0.75000000  0.67052800  0.63916300  1
  Fe  Fe20  1  0.25000000  0.32930900  0.96862700  1
  Fe  Fe21  1  0.25000000  0.63916300  0.67052800  1
  Fe  Fe22  1  0.25000000  0.03153300  0.36078200  1
  Fe  Fe23  1  0.25000000  0.63921800  0.96846700  1
  Fe  Fe24  1  0.25000000  0.03137300  0.67069100  1
  Fe  Fe25  1  0.25000000  0.32947200  0.36083700  1
  Fe  Fe26  1  0.48717200  0.83439400  0.66901000  1
  Fe  Fe27  1  0.48715300  0.83454900  0.16545100  1
  Fe  Fe28  1  0.48717200  0.33099000  0.16560600  1
  Fe  Fe29  1  0.51282800  0.16560600  0.33099000  1
  Fe  Fe30  1  0.51284700  0.16545100  0.83454900  1
  Fe  Fe31  1  0.51282800  0.66901000  0.83439400  1
  Fe  Fe32  1  0.98717200  0.16560600  0.33099000  1
  Fe  Fe33  1  0.98715300  0.16545100  0.83454900  1
  Fe  Fe34  1  0.98717200  0.66901000  0.83439400  1
  Fe  Fe35  1  0.01282800  0.83439400  0.66901000  1
  Fe  Fe36  1  0.01284700  0.83454900  0.16545100  1
  Fe  Fe37  1  0.01282800  0.33099000  0.16560600  1
