# generated using pymatgen
data_YMnFe
_symmetry_space_group_name_H-M   'P 1'
_cell_length_a   5.15177133
_cell_length_b   5.15177133
_cell_length_c   5.15177133
_cell_angle_alpha   120.71437395
_cell_angle_beta   119.23757672
_cell_angle_gamma   90.04637151
_symmetry_Int_Tables_number   1
_chemical_formula_structural   YMnFe
_chemical_formula_sum   'Y2 Mn2 Fe2'
_cell_volume   96.69904236
_cell_formula_units_Z   2
loop_
 _symmetry_equiv_pos_site_id
 _symmetry_equiv_pos_as_xyz
  1  'x, y, z'
loop_
 _atom_site_type_symbol
 _atom_site_label
 _atom_site_symmetry_multiplicity
 _atom_site_fract_x
 _atom_site_fract_y
 _atom_site_fract_z
 _atom_site_occupancy
  Y  Y0  1  0.37272700  0.12272700  0.25000000  1
  Y  Y1  1  0.62727300  0.87727300  0.75000000  1
  Mn  Mn2  1  0.50000000  0.50000000  0.00000000  1
  Mn  Mn3  1  0.00000000  0.50000000  0.50000000  1
  Fe  Fe4  1  0.00000000  0.50000000  0.00000000  1
  Fe  Fe5  1  0.00000000  0.00000000  0.50000000  1
