# generated using pymatgen
data_Cu(BiO2)2
_symmetry_space_group_name_H-M   'P 1'
_cell_length_a   5.62728494
_cell_length_b   6.88666225
_cell_length_c   6.88666238
_cell_angle_alpha   80.39095665
_cell_angle_beta   65.88533492
_cell_angle_gamma   65.88534070
_symmetry_Int_Tables_number   1
_chemical_formula_structural   Cu(BiO2)2
_chemical_formula_sum   'Cu2 Bi4 O8'
_cell_volume   222.33140090
_cell_formula_units_Z   2
loop_
 _symmetry_equiv_pos_site_id
 _symmetry_equiv_pos_as_xyz
  1  'x, y, z'
loop_
 _atom_site_type_symbol
 _atom_site_label
 _atom_site_symmetry_multiplicity
 _atom_site_fract_x
 _atom_site_fract_y
 _atom_site_fract_z
 _atom_site_occupancy
  Cu  Cu0  1  0.68028200  0.00000000  0.00000000  1
  Cu  Cu1  1  0.17979600  0.00000000  0.00000000  1
  Bi  Bi2  1  0.65471100  0.50044100  0.15883400  1
  Bi  Bi3  1  0.81354500  0.84116600  0.50044100  1
  Bi  Bi4  1  0.15515200  0.15883400  0.49955900  1
  Bi  Bi5  1  0.31398600  0.49955900  0.84116600  1
  O  O6  1  0.76760800  0.08855100  0.70370200  1
  O  O7  1  0.35602700  0.91198300  0.70340700  1
  O  O8  1  0.55986200  0.91144900  0.29629800  1
  O  O9  1  0.47131000  0.29629800  0.08855100  1
  O  O10  1  0.05943400  0.29659300  0.91198300  1
  O  O11  1  0.97141700  0.08801700  0.29659300  1
  O  O12  1  0.85616000  0.70370200  0.91144900  1
  O  O13  1  0.26801000  0.70340700  0.08801700  1
