# generated using pymatgen
data_Tb2In3Cu
_symmetry_space_group_name_H-M   'P 1'
_cell_length_a   4.72026304
_cell_length_b   4.72026304
_cell_length_c   7.50472800
_cell_angle_alpha   90.00000000
_cell_angle_beta   90.00000000
_cell_angle_gamma   120.00001451
_symmetry_Int_Tables_number   1
_chemical_formula_structural   Tb2In3Cu
_chemical_formula_sum   'Tb2 In3 Cu1'
_cell_volume   144.80979044
_cell_formula_units_Z   1
loop_
 _symmetry_equiv_pos_site_id
 _symmetry_equiv_pos_as_xyz
  1  'x, y, z'
loop_
 _atom_site_type_symbol
 _atom_site_label
 _atom_site_symmetry_multiplicity
 _atom_site_fract_x
 _atom_site_fract_y
 _atom_site_fract_z
 _atom_site_occupancy
  Tb  Tb0  1  0.00000000  0.00000000  0.72525600  1
  Tb  Tb1  1  0.00000000  0.00000000  0.26339300  1
  In  In2  1  0.33333300  0.66666700  0.48512500  1
  In  In3  1  0.33333300  0.66666700  0.05273300  1
  In  In4  1  0.66666700  0.33333300  0.93283000  1
  Cu  Cu5  1  0.66666700  0.33333300  0.54066300  1
