# generated using pymatgen
data_CrCuO2
_symmetry_space_group_name_H-M   'P 1'
_cell_length_a   3.04945459
_cell_length_b   11.46137900
_cell_length_c   3.04945400
_cell_angle_alpha   89.99996621
_cell_angle_beta   120.00015557
_cell_angle_gamma   90.00003062
_symmetry_Int_Tables_number   1
_chemical_formula_structural   CrCuO2
_chemical_formula_sum   'Cr2 Cu2 O4'
_cell_volume   92.30199362
_cell_formula_units_Z   2
loop_
 _symmetry_equiv_pos_site_id
 _symmetry_equiv_pos_as_xyz
  1  'x, y, z'
loop_
 _atom_site_type_symbol
 _atom_site_label
 _atom_site_symmetry_multiplicity
 _atom_site_fract_x
 _atom_site_fract_y
 _atom_site_fract_z
 _atom_site_occupancy
  Cr  Cr0  1  0.00000400  0.50000200  0.00000700  1
  Cr  Cr1  1  0.99999800  0.00000000  0.99999800  1
  Cu  Cu2  1  0.33333200  0.75000000  0.66666500  1
  Cu  Cu3  1  0.66666600  0.25000100  0.33333100  1
  O  O4  1  0.66666600  0.41196400  0.33333300  1
  O  O5  1  0.33333300  0.91196100  0.66666500  1
  O  O6  1  0.33333300  0.58803400  0.66666600  1
  O  O7  1  0.66666600  0.08804100  0.33333200  1
