# generated using pymatgen
data_Gd2Co17
_symmetry_space_group_name_H-M   'P 1'
_cell_length_a   8.11409200
_cell_length_b   8.31209430
_cell_length_c   8.31209430
_cell_angle_alpha   119.87530275
_cell_angle_beta   90.00000000
_cell_angle_gamma   90.00000000
_symmetry_Int_Tables_number   1
_chemical_formula_structural   Gd2Co17
_chemical_formula_sum   'Gd4 Co34'
_cell_volume   486.11141293
_cell_formula_units_Z   2
loop_
 _symmetry_equiv_pos_site_id
 _symmetry_equiv_pos_as_xyz
  1  'x, y, z'
loop_
 _atom_site_type_symbol
 _atom_site_label
 _atom_site_symmetry_multiplicity
 _atom_site_fract_x
 _atom_site_fract_y
 _atom_site_fract_z
 _atom_site_occupancy
  Gd  Gd0  1  0.75000000  0.99984400  0.00015600  1
  Gd  Gd1  1  0.25000000  0.00015600  0.99984400  1
  Gd  Gd2  1  0.25000000  0.66673000  0.33327000  1
  Gd  Gd3  1  0.75000000  0.33327000  0.66673000  1
  Co  Co4  1  0.60645100  0.66683100  0.33316900  1
  Co  Co5  1  0.39354900  0.33316900  0.66683100  1
  Co  Co6  1  0.10645100  0.33316900  0.66683100  1
  Co  Co7  1  0.89354900  0.66683100  0.33316900  1
  Co  Co8  1  0.50000000  0.50000000  0.00000000  1
  Co  Co9  1  0.50000000  0.50000000  0.50000000  1
  Co  Co10  1  0.50000000  0.00000000  0.50000000  1
  Co  Co11  1  0.00000000  0.50000000  0.00000000  1
  Co  Co12  1  0.00000000  0.50000000  0.50000000  1
  Co  Co13  1  0.00000000  0.00000000  0.50000000  1
  Co  Co14  1  0.75000000  0.67113100  0.04782600  1
  Co  Co15  1  0.75000000  0.37676100  0.32899000  1
  Co  Co16  1  0.75000000  0.95170500  0.62245700  1
  Co  Co17  1  0.75000000  0.37754300  0.04829500  1
  Co  Co18  1  0.75000000  0.95217400  0.32886900  1
  Co  Co19  1  0.75000000  0.67101000  0.62323900  1
  Co  Co20  1  0.25000000  0.32886900  0.95217400  1
  Co  Co21  1  0.25000000  0.62323900  0.67101000  1
  Co  Co22  1  0.25000000  0.04829500  0.37754300  1
  Co  Co23  1  0.25000000  0.62245700  0.95170500  1
  Co  Co24  1  0.25000000  0.04782600  0.67113100  1
  Co  Co25  1  0.25000000  0.32899000  0.37676100  1
  Co  Co26  1  0.47800300  0.83324900  0.66626300  1
  Co  Co27  1  0.47833800  0.83319700  0.16680300  1
  Co  Co28  1  0.47800300  0.33373700  0.16675100  1
  Co  Co29  1  0.52199700  0.16675100  0.33373700  1
  Co  Co30  1  0.52166200  0.16680300  0.83319700  1
  Co  Co31  1  0.52199700  0.66626300  0.83324900  1
  Co  Co32  1  0.97800300  0.16675100  0.33373700  1
  Co  Co33  1  0.97833800  0.16680300  0.83319700  1
  Co  Co34  1  0.97800300  0.66626300  0.83324900  1
  Co  Co35  1  0.02199700  0.83324900  0.66626300  1
  Co  Co36  1  0.02166200  0.83319700  0.16680300  1
  Co  Co37  1  0.02199700  0.33373700  0.16675100  1
