# generated using pymatgen
data_Er6Mn23
_symmetry_space_group_name_H-M   'P 1'
_cell_length_a   8.45101498
_cell_length_b   8.45101498
_cell_length_c   8.45101498
_cell_angle_alpha   60.00000000
_cell_angle_beta   60.00000000
_cell_angle_gamma   60.00000000
_symmetry_Int_Tables_number   1
_chemical_formula_structural   Er6Mn23
_chemical_formula_sum   'Er6 Mn23'
_cell_volume   426.78742689
_cell_formula_units_Z   1
loop_
 _symmetry_equiv_pos_site_id
 _symmetry_equiv_pos_as_xyz
  1  'x, y, z'
loop_
 _atom_site_type_symbol
 _atom_site_label
 _atom_site_symmetry_multiplicity
 _atom_site_fract_x
 _atom_site_fract_y
 _atom_site_fract_z
 _atom_site_occupancy
  Er  Er0  1  0.70387500  0.29612500  0.29612500  1
  Er  Er1  1  0.70387500  0.29612500  0.70387500  1
  Er  Er2  1  0.70387500  0.70387500  0.29612500  1
  Er  Er3  1  0.29612500  0.70387500  0.70387500  1
  Er  Er4  1  0.29612500  0.70387500  0.29612500  1
  Er  Er5  1  0.29612500  0.29612500  0.70387500  1
  Mn  Mn6  1  0.00000000  0.00000000  0.00000000  1
  Mn  Mn7  1  0.50000000  0.00000000  0.00000000  1
  Mn  Mn8  1  0.50000000  0.00000000  0.50000000  1
  Mn  Mn9  1  0.50000000  0.50000000  0.00000000  1
  Mn  Mn10  1  0.00000000  0.50000000  0.50000000  1
  Mn  Mn11  1  0.00000000  0.50000000  0.00000000  1
  Mn  Mn12  1  0.00000000  0.00000000  0.50000000  1
  Mn  Mn13  1  0.63506100  0.12164600  0.12164600  1
  Mn  Mn14  1  0.12164600  0.63506100  0.12164600  1
  Mn  Mn15  1  0.12164600  0.12164600  0.63506100  1
  Mn  Mn16  1  0.12164600  0.12164600  0.12164600  1
  Mn  Mn17  1  0.36493900  0.87835400  0.87835400  1
  Mn  Mn18  1  0.87835400  0.36493900  0.87835400  1
  Mn  Mn19  1  0.87835400  0.87835400  0.36493900  1
  Mn  Mn20  1  0.87835400  0.87835400  0.87835400  1
  Mn  Mn21  1  0.03150000  0.32283300  0.32283300  1
  Mn  Mn22  1  0.32283300  0.03150000  0.32283300  1
  Mn  Mn23  1  0.32283300  0.32283300  0.03150000  1
  Mn  Mn24  1  0.32283300  0.32283300  0.32283300  1
  Mn  Mn25  1  0.96850000  0.67716700  0.67716700  1
  Mn  Mn26  1  0.67716700  0.96850000  0.67716700  1
  Mn  Mn27  1  0.67716700  0.67716700  0.96850000  1
  Mn  Mn28  1  0.67716700  0.67716700  0.67716700  1
