# generated using pymatgen
data_FeGe2
_symmetry_space_group_name_H-M   'P 1'
_cell_length_a   6.64424955
_cell_length_b   6.64424955
_cell_length_c   8.24499700
_cell_angle_alpha   90.00000000
_cell_angle_beta   90.00000000
_cell_angle_gamma   104.86121548
_symmetry_Int_Tables_number   1
_chemical_formula_structural   FeGe2
_chemical_formula_sum   'Fe8 Ge16'
_cell_volume   351.80876889
_cell_formula_units_Z   8
loop_
 _symmetry_equiv_pos_site_id
 _symmetry_equiv_pos_as_xyz
  1  'x, y, z'
loop_
 _atom_site_type_symbol
 _atom_site_label
 _atom_site_symmetry_multiplicity
 _atom_site_fract_x
 _atom_site_fract_y
 _atom_site_fract_z
 _atom_site_occupancy
  Fe  Fe0  1  0.69663500  0.69663500  0.68760100  1
  Fe  Fe1  1  0.30336500  0.30336500  0.31239900  1
  Fe  Fe2  1  0.71834700  0.28165300  0.50000000  1
  Fe  Fe3  1  0.21834700  0.78165300  0.00000000  1
  Fe  Fe4  1  0.19663500  0.19663500  0.81239900  1
  Fe  Fe5  1  0.28165300  0.71834700  0.50000000  1
  Fe  Fe6  1  0.78165300  0.21834700  0.00000000  1
  Fe  Fe7  1  0.80336500  0.80336500  0.18760100  1
  Ge  Ge8  1  0.10075100  0.35507900  0.54413400  1
  Ge  Ge9  1  0.16589200  0.91350200  0.26880800  1
  Ge  Ge10  1  0.35507900  0.10075100  0.54413400  1
  Ge  Ge11  1  0.66589200  0.41350200  0.23119200  1
  Ge  Ge12  1  0.08649800  0.83410800  0.73119200  1
  Ge  Ge13  1  0.64492100  0.89924900  0.45586600  1
  Ge  Ge14  1  0.89924900  0.64492100  0.45586600  1
  Ge  Ge15  1  0.85507900  0.60075100  0.95586600  1
  Ge  Ge16  1  0.58649800  0.33410800  0.76880800  1
  Ge  Ge17  1  0.41350200  0.66589200  0.23119200  1
  Ge  Ge18  1  0.14492100  0.39924900  0.04413400  1
  Ge  Ge19  1  0.83410800  0.08649800  0.73119200  1
  Ge  Ge20  1  0.33410800  0.58649800  0.76880800  1
  Ge  Ge21  1  0.91350200  0.16589200  0.26880800  1
  Ge  Ge22  1  0.39924900  0.14492100  0.04413400  1
  Ge  Ge23  1  0.60075100  0.85507900  0.95586600  1
