# generated using pymatgen
data_Nb2Co4O9
_symmetry_space_group_name_H-M   'P 1'
_cell_length_a   5.21339782
_cell_length_b   5.22538277
_cell_length_c   14.30369990
_cell_angle_alpha   90.38363271
_cell_angle_beta   89.75719055
_cell_angle_gamma   60.06447382
_symmetry_Int_Tables_number   1
_chemical_formula_structural   Nb2Co4O9
_chemical_formula_sum   'Nb4 Co8 O18'
_cell_volume   337.65519538
_cell_formula_units_Z   2
loop_
 _symmetry_equiv_pos_site_id
 _symmetry_equiv_pos_as_xyz
  1  'x, y, z'
loop_
 _atom_site_type_symbol
 _atom_site_label
 _atom_site_symmetry_multiplicity
 _atom_site_fract_x
 _atom_site_fract_y
 _atom_site_fract_z
 _atom_site_occupancy
  Nb  Nb0  1  0.99520300  0.00789500  0.64227200  1
  Nb  Nb1  1  0.00482800  0.99528000  0.85897000  1
  Nb  Nb2  1  0.00032500  0.99616300  0.35837000  1
  Nb  Nb3  1  0.99872200  0.00254200  0.14162100  1
  Co  Co4  1  0.33563300  0.33160900  0.01364200  1
  Co  Co5  1  0.32859000  0.33461900  0.51064700  1
  Co  Co6  1  0.66732800  0.66729800  0.98781800  1
  Co  Co7  1  0.33425400  0.33458000  0.80417500  1
  Co  Co8  1  0.66407000  0.67040500  0.48876400  1
  Co  Co9  1  0.67164400  0.66486400  0.69148900  1
  Co  Co10  1  0.33056900  0.33445400  0.30485300  1
  Co  Co11  1  0.66701800  0.66519700  0.19435700  1
  O  O12  1  0.70919800  0.28964700  0.25045500  1
  O  O13  1  0.99942700  0.71074500  0.24975900  1
  O  O14  1  0.28926900  0.99957400  0.24974400  1
  O  O15  1  0.29459100  0.70867500  0.74924100  1
  O  O16  1  0.99892900  0.28914300  0.75104600  1
  O  O17  1  0.71233700  0.99880500  0.75038600  1
  O  O18  1  0.34061000  0.98471300  0.58450800  1
  O  O19  1  0.67685700  0.34460300  0.58251700  1
  O  O20  1  0.97691600  0.67853900  0.58549300  1
  O  O21  1  0.32252100  0.02060200  0.91700700  1
  O  O22  1  0.02158200  0.65547900  0.91606500  1
  O  O23  1  0.65797900  0.31971400  0.91666400  1
  O  O24  1  0.65711800  0.01806500  0.41672800  1
  O  O25  1  0.32230100  0.65717300  0.41600300  1
  O  O26  1  0.02184600  0.32241200  0.41487700  1
  O  O27  1  0.67796800  0.97619300  0.08450400  1
  O  O28  1  0.97955600  0.34318200  0.08417700  1
  O  O29  1  0.34281200  0.67783200  0.08384800  1
