# generated using pymatgen
data_FeBiO3
_symmetry_space_group_name_H-M   'P 1'
_cell_length_a   5.60594755
_cell_length_b   5.60594755
_cell_length_c   5.60594745
_cell_angle_alpha   59.48315564
_cell_angle_beta   59.48315564
_cell_angle_gamma   59.48315026
_symmetry_Int_Tables_number   1
_chemical_formula_structural   FeBiO3
_chemical_formula_sum   'Fe2 Bi2 O6'
_cell_volume   123.11087453
_cell_formula_units_Z   2
loop_
 _symmetry_equiv_pos_site_id
 _symmetry_equiv_pos_as_xyz
  1  'x, y, z'
loop_
 _atom_site_type_symbol
 _atom_site_label
 _atom_site_symmetry_multiplicity
 _atom_site_fract_x
 _atom_site_fract_y
 _atom_site_fract_z
 _atom_site_occupancy
  Fe  Fe0  1  0.29760400  0.29760400  0.29760400  1
  Fe  Fe1  1  0.79182900  0.79182900  0.79182900  1
  Bi  Bi2  1  0.07373700  0.07373700  0.07373700  1
  Bi  Bi3  1  0.57104100  0.57104100  0.57104100  1
  O  O4  1  0.47649800  0.01218600  0.61165500  1
  O  O5  1  0.52047300  0.96635800  0.10806600  1
  O  O6  1  0.01218600  0.61165500  0.47649800  1
  O  O7  1  0.61165500  0.47649800  0.01218600  1
  O  O8  1  0.10806600  0.52047300  0.96635800  1
  O  O9  1  0.96635800  0.10806600  0.52047300  1
