# generated using pymatgen
data_Gd2O3
_symmetry_space_group_name_H-M   'P 1'
_cell_length_a   7.44239038
_cell_length_b   7.44239038
_cell_length_c   8.82555260
_cell_angle_alpha   79.54280528
_cell_angle_beta   79.54280528
_cell_angle_gamma   27.84278281
_symmetry_Int_Tables_number   1
_chemical_formula_structural   Gd2O3
_chemical_formula_sum   'Gd6 O9'
_cell_volume   224.28415461
_cell_formula_units_Z   3
loop_
 _symmetry_equiv_pos_site_id
 _symmetry_equiv_pos_as_xyz
  1  'x, y, z'
loop_
 _atom_site_type_symbol
 _atom_site_label
 _atom_site_symmetry_multiplicity
 _atom_site_fract_x
 _atom_site_fract_y
 _atom_site_fract_z
 _atom_site_occupancy
  Gd  Gd0  1  0.03089300  0.03089300  0.18593200  1
  Gd  Gd1  1  0.69181700  0.69181700  0.86305000  1
  Gd  Gd2  1  0.30818300  0.30818300  0.13695000  1
  Gd  Gd3  1  0.63476900  0.63476900  0.50881900  1
  Gd  Gd4  1  0.96910700  0.96910700  0.81406800  1
  Gd  Gd5  1  0.36523100  0.36523100  0.49118100  1
  O  O6  1  0.12645500  0.12645500  0.71582800  1
  O  O7  1  0.17533200  0.17533200  0.02977900  1
  O  O8  1  0.52961500  0.52961500  0.34215300  1
  O  O9  1  0.79422000  0.79422000  0.62414400  1
  O  O10  1  0.47038500  0.47038500  0.65784700  1
  O  O11  1  0.87354500  0.87354500  0.28417200  1
  O  O12  1  0.50000000  0.50000000  0.00000000  1
  O  O13  1  0.82466800  0.82466800  0.97022100  1
  O  O14  1  0.20578000  0.20578000  0.37585600  1
