# generated using pymatgen
data_LaCrO3
_symmetry_space_group_name_H-M   'P 1'
_cell_length_a   5.52410440
_cell_length_b   5.52410140
_cell_length_c   5.52409713
_cell_angle_alpha   61.06082935
_cell_angle_beta   61.06092202
_cell_angle_gamma   61.06097839
_symmetry_Int_Tables_number   1
_chemical_formula_structural   LaCrO3
_chemical_formula_sum   'La2 Cr2 O6'
_cell_volume   122.04552316
_cell_formula_units_Z   2
loop_
 _symmetry_equiv_pos_site_id
 _symmetry_equiv_pos_as_xyz
  1  'x, y, z'
loop_
 _atom_site_type_symbol
 _atom_site_label
 _atom_site_symmetry_multiplicity
 _atom_site_fract_x
 _atom_site_fract_y
 _atom_site_fract_z
 _atom_site_occupancy
  La  La0  1  0.75000000  0.74999900  0.74999800  1
  La  La1  1  0.25000100  0.25000100  0.25000300  1
  Cr  Cr2  1  0.99999500  0.99999700  0.99999900  1
  Cr  Cr3  1  0.50000500  0.49999900  0.50000000  1
  O  O4  1  0.32304200  0.17695400  0.74999200  1
  O  O5  1  0.17695100  0.75000000  0.32304900  1
  O  O6  1  0.75000100  0.32305500  0.17694600  1
  O  O7  1  0.67695200  0.82305000  0.25001200  1
  O  O8  1  0.25000700  0.67694900  0.82304800  1
  O  O9  1  0.82304400  0.24999600  0.67695200  1
