# generated using pymatgen
data_MnTe6O13
_symmetry_space_group_name_H-M   'P 1'
_cell_length_a   8.90271829
_cell_length_b   8.90271829
_cell_length_c   8.90271819
_cell_angle_alpha   71.68181093
_cell_angle_beta   71.68181093
_cell_angle_gamma   71.68180845
_symmetry_Int_Tables_number   1
_chemical_formula_structural   MnTe6O13
_chemical_formula_sum   'Mn2 Te12 O26'
_cell_volume   617.46380586
_cell_formula_units_Z   2
loop_
 _symmetry_equiv_pos_site_id
 _symmetry_equiv_pos_as_xyz
  1  'x, y, z'
loop_
 _atom_site_type_symbol
 _atom_site_label
 _atom_site_symmetry_multiplicity
 _atom_site_fract_x
 _atom_site_fract_y
 _atom_site_fract_z
 _atom_site_occupancy
  Mn  Mn0  1  0.75592500  0.75592500  0.75592500  1
  Mn  Mn1  1  0.24407500  0.24407500  0.24407500  1
  Te  Te2  1  0.83376300  0.51164000  0.44420600  1
  Te  Te3  1  0.44420600  0.83376300  0.51164000  1
  Te  Te4  1  0.51164000  0.44420600  0.83376300  1
  Te  Te5  1  0.16623700  0.48836000  0.55579400  1
  Te  Te6  1  0.55579400  0.16623700  0.48836000  1
  Te  Te7  1  0.48836000  0.55579400  0.16623700  1
  Te  Te8  1  0.96684600  0.07859000  0.67852400  1
  Te  Te9  1  0.67852400  0.96684600  0.07859000  1
  Te  Te10  1  0.07859000  0.67852400  0.96684600  1
  Te  Te11  1  0.03315400  0.92141000  0.32147600  1
  Te  Te12  1  0.32147600  0.03315400  0.92141000  1
  Te  Te13  1  0.92141000  0.32147600  0.03315400  1
  O  O14  1  0.89856100  0.57394700  0.60423500  1
  O  O15  1  0.60423500  0.89856100  0.57394700  1
  O  O16  1  0.57394700  0.60423500  0.89856100  1
  O  O17  1  0.10143900  0.42605300  0.39576500  1
  O  O18  1  0.39576500  0.10143900  0.42605300  1
  O  O19  1  0.42605300  0.39576500  0.10143900  1
  O  O20  1  0.86189400  0.96073000  0.61765600  1
  O  O21  1  0.61765600  0.86189400  0.96073000  1
  O  O22  1  0.96073000  0.61765600  0.86189400  1
  O  O23  1  0.13810600  0.03927000  0.38234400  1
  O  O24  1  0.38234400  0.13810600  0.03927000  1
  O  O25  1  0.03927000  0.38234400  0.13810600  1
  O  O26  1  0.58912900  0.58912900  0.58912900  1
  O  O27  1  0.41087100  0.41087100  0.41087100  1
  O  O28  1  0.80521000  0.30089800  0.55351000  1
  O  O29  1  0.55351000  0.80521000  0.30089800  1
  O  O30  1  0.30089800  0.55351000  0.80521000  1
  O  O31  1  0.19479000  0.69910200  0.44649000  1
  O  O32  1  0.44649000  0.19479000  0.69910200  1
  O  O33  1  0.69910200  0.44649000  0.19479000  1
  O  O34  1  0.11237500  0.87671300  0.80032600  1
  O  O35  1  0.80032600  0.11237500  0.87671300  1
  O  O36  1  0.87671300  0.80032600  0.11237500  1
  O  O37  1  0.88762500  0.12328700  0.19967400  1
  O  O38  1  0.19967400  0.88762500  0.12328700  1
  O  O39  1  0.12328700  0.19967400  0.88762500  1
