# generated using pymatgen
data_PrMgSn
_symmetry_space_group_name_H-M   'P 1'
_cell_length_a   4.67425500
_cell_length_b   7.72510500
_cell_length_c   9.15013800
_cell_angle_alpha   90.00000000
_cell_angle_beta   90.00000000
_cell_angle_gamma   90.00000000
_symmetry_Int_Tables_number   1
_chemical_formula_structural   PrMgSn
_chemical_formula_sum   'Pr4 Mg4 Sn4'
_cell_volume   330.40334570
_cell_formula_units_Z   4
loop_
 _symmetry_equiv_pos_site_id
 _symmetry_equiv_pos_as_xyz
  1  'x, y, z'
loop_
 _atom_site_type_symbol
 _atom_site_label
 _atom_site_symmetry_multiplicity
 _atom_site_fract_x
 _atom_site_fract_y
 _atom_site_fract_z
 _atom_site_occupancy
  Pr  Pr0  1  0.25000000  0.02050900  0.31826500  1
  Pr  Pr1  1  0.25000000  0.52050900  0.18173500  1
  Pr  Pr2  1  0.75000000  0.97949100  0.68173500  1
  Pr  Pr3  1  0.75000000  0.47949100  0.81826500  1
  Mg  Mg4  1  0.25000000  0.15431200  0.93289800  1
  Mg  Mg5  1  0.25000000  0.65431200  0.56710200  1
  Mg  Mg6  1  0.75000000  0.84568800  0.06710200  1
  Mg  Mg7  1  0.75000000  0.34568800  0.43289800  1
  Sn  Sn8  1  0.25000000  0.27118600  0.61266500  1
  Sn  Sn9  1  0.25000000  0.77118600  0.88733500  1
  Sn  Sn10  1  0.75000000  0.72881400  0.38733500  1
  Sn  Sn11  1  0.75000000  0.22881400  0.11266500  1
