# generated using pymatgen
data_La2CoRuO6
_symmetry_space_group_name_H-M   'P 1'
_cell_length_a   5.59061312
_cell_length_b   5.77619044
_cell_length_c   7.90301309
_cell_angle_alpha   90.12401663
_cell_angle_beta   90.60704160
_cell_angle_gamma   90.26306026
_symmetry_Int_Tables_number   1
_chemical_formula_structural   La2CoRuO6
_chemical_formula_sum   'La4 Co2 Ru2 O12'
_cell_volume   255.18998600
_cell_formula_units_Z   2
loop_
 _symmetry_equiv_pos_site_id
 _symmetry_equiv_pos_as_xyz
  1  'x, y, z'
loop_
 _atom_site_type_symbol
 _atom_site_label
 _atom_site_symmetry_multiplicity
 _atom_site_fract_x
 _atom_site_fract_y
 _atom_site_fract_z
 _atom_site_occupancy
  La  La0  1  0.01441700  0.43875300  0.25014900  1
  La  La1  1  0.98559200  0.56124000  0.74985100  1
  La  La2  1  0.48628500  0.94039400  0.25178500  1
  La  La3  1  0.51370800  0.05960500  0.74821200  1
  Co  Co4  1  0.50000600  0.50000000  0.00000000  1
  Co  Co5  1  0.99999400  0.00000000  0.50000000  1
  Ru  Ru6  1  0.00000600  0.00000200  0.99999600  1
  Ru  Ru7  1  0.49999500  0.49999900  0.50000700  1
  O  O8  1  0.29416400  0.19673400  0.04514900  1
  O  O9  1  0.70583000  0.80326700  0.95484400  1
  O  O10  1  0.20657600  0.69805400  0.45567400  1
  O  O11  1  0.79342800  0.30194800  0.54433100  1
  O  O12  1  0.19679700  0.70886000  0.05273100  1
  O  O13  1  0.80320600  0.29114300  0.94726600  1
  O  O14  1  0.30295100  0.20768200  0.44941300  1
  O  O15  1  0.69704500  0.79232100  0.55059000  1
  O  O16  1  0.90755400  0.02002700  0.24689300  1
  O  O17  1  0.09244000  0.97997100  0.75311000  1
  O  O18  1  0.59250100  0.52021200  0.25447500  1
  O  O19  1  0.40750700  0.47978700  0.74552400  1
