# generated using pymatgen
data_Nb4P2AuS20
_symmetry_space_group_name_H-M   'P 1'
_cell_length_a   13.41798677
_cell_length_b   13.41798677
_cell_length_c   13.13666822
_cell_angle_alpha   87.76756473
_cell_angle_beta   87.76756473
_cell_angle_gamma   33.90501385
_symmetry_Int_Tables_number   1
_chemical_formula_structural   Nb4P2AuS20
_chemical_formula_sum   'Nb8 P4 Au2 S40'
_cell_volume   1318.23203987
_cell_formula_units_Z   2
loop_
 _symmetry_equiv_pos_site_id
 _symmetry_equiv_pos_as_xyz
  1  'x, y, z'
loop_
 _atom_site_type_symbol
 _atom_site_label
 _atom_site_symmetry_multiplicity
 _atom_site_fract_x
 _atom_site_fract_y
 _atom_site_fract_z
 _atom_site_occupancy
  Nb  Nb0  1  0.41825400  0.30024200  0.00545700  1
  Nb  Nb1  1  0.58174600  0.69975800  0.99454300  1
  Nb  Nb2  1  0.69975800  0.58174600  0.49454300  1
  Nb  Nb3  1  0.30024200  0.41825400  0.50545700  1
  Nb  Nb4  1  0.57342200  0.70655000  0.27719200  1
  Nb  Nb5  1  0.42657800  0.29345000  0.72280800  1
  Nb  Nb6  1  0.29345000  0.42657800  0.22280800  1
  Nb  Nb7  1  0.70655000  0.57342200  0.77719200  1
  P  P8  1  0.21091500  0.99318800  0.13558500  1
  P  P9  1  0.78908500  0.00681200  0.86441500  1
  P  P10  1  0.00681200  0.78908500  0.36441500  1
  P  P11  1  0.99318800  0.21091500  0.63558500  1
  Au  Au12  1  0.00000000  0.00000000  0.00000000  1
  Au  Au13  1  0.00000000  0.00000000  0.50000000  1
  S  S14  1  0.50029100  0.18565800  0.36372100  1
  S  S15  1  0.49970900  0.81434200  0.63627900  1
  S  S16  1  0.81434200  0.49970900  0.13627900  1
  S  S17  1  0.18565800  0.50029100  0.86372100  1
  S  S18  1  0.42667000  0.71421900  0.14048500  1
  S  S19  1  0.57333000  0.28578100  0.85951500  1
  S  S20  1  0.28578100  0.57333000  0.35951500  1
  S  S21  1  0.71421900  0.42667000  0.64048500  1
  S  S22  1  0.24882000  0.04092800  0.26331700  1
  S  S23  1  0.75118000  0.95907200  0.73668300  1
  S  S24  1  0.95907200  0.75118000  0.23668300  1
  S  S25  1  0.04092800  0.24882000  0.76331700  1
  S  S26  1  0.86967200  0.03422700  0.36090100  1
  S  S27  1  0.13032800  0.96577300  0.63909900  1
  S  S28  1  0.96577300  0.13032800  0.13909900  1
  S  S29  1  0.03422700  0.86967200  0.86090100  1
  S  S30  1  0.26372000  0.03381100  0.00535100  1
  S  S31  1  0.73628000  0.96618900  0.99464900  1
  S  S32  1  0.96618900  0.73628000  0.49464900  1
  S  S33  1  0.03381100  0.26372000  0.50535100  1
  S  S34  1  0.54827500  0.30787800  0.13772000  1
  S  S35  1  0.45172500  0.69212200  0.86228000  1
  S  S36  1  0.69212200  0.45172500  0.36228000  1
  S  S37  1  0.30787800  0.54827500  0.63772000  1
  S  S38  1  0.57556000  0.84102600  0.40246100  1
  S  S39  1  0.42444000  0.15897400  0.59753900  1
  S  S40  1  0.15897400  0.42444000  0.09753900  1
  S  S41  1  0.84102600  0.57556000  0.90246100  1
  S  S42  1  0.40752200  0.17395800  0.14167000  1
  S  S43  1  0.59247800  0.82604200  0.85833000  1
  S  S44  1  0.82604200  0.59247800  0.35833000  1
  S  S45  1  0.17395800  0.40752200  0.64167000  1
  S  S46  1  0.66756100  0.75189600  0.13037200  1
  S  S47  1  0.33243900  0.24810400  0.86962800  1
  S  S48  1  0.24810400  0.33243900  0.36962800  1
  S  S49  1  0.75189600  0.66756100  0.63037200  1
  S  S50  1  0.30537900  0.55221900  0.07829200  1
  S  S51  1  0.69462100  0.44778100  0.92170800  1
  S  S52  1  0.44778100  0.69462100  0.42170800  1
  S  S53  1  0.55221900  0.30537900  0.57829200  1
