# generated using pymatgen
data_Tb3(CuSi)4
_symmetry_space_group_name_H-M   'P 1'
_cell_length_a   7.90366653
_cell_length_b   7.90366653
_cell_length_c   7.90366653
_cell_angle_alpha   149.49242607
_cell_angle_beta   130.97712063
_cell_angle_gamma   58.84736880
_symmetry_Int_Tables_number   1
_chemical_formula_structural   Tb3(CuSi)4
_chemical_formula_sum   'Tb3 Cu4 Si4'
_cell_volume   187.75828312
_cell_formula_units_Z   1
loop_
 _symmetry_equiv_pos_site_id
 _symmetry_equiv_pos_as_xyz
  1  'x, y, z'
loop_
 _atom_site_type_symbol
 _atom_site_label
 _atom_site_symmetry_multiplicity
 _atom_site_fract_x
 _atom_site_fract_y
 _atom_site_fract_z
 _atom_site_occupancy
  Tb  Tb0  1  0.87002600  0.87002600  0.00000000  1
  Tb  Tb1  1  0.12997400  0.12997400  0.00000000  1
  Tb  Tb2  1  0.50000000  0.00000000  0.50000000  1
  Cu  Cu3  1  0.52207600  0.33196900  0.19010700  1
  Cu  Cu4  1  0.85813900  0.66803100  0.19010700  1
  Cu  Cu5  1  0.14186100  0.33196900  0.80989300  1
  Cu  Cu6  1  0.47792400  0.66803100  0.80989300  1
  Si  Si7  1  0.81589700  0.50000000  0.31589700  1
  Si  Si8  1  0.18410300  0.50000000  0.68410300  1
  Si  Si9  1  0.28409100  0.78409100  0.50000000  1
  Si  Si10  1  0.71590900  0.21590900  0.50000000  1
