# generated using pymatgen
data_Al2CoO4
_symmetry_space_group_name_H-M   'P 1'
_cell_length_a   23.89953425
_cell_length_b   23.89953425
_cell_length_c   23.89953377
_cell_angle_alpha   13.89435276
_cell_angle_beta   13.89435276
_cell_angle_gamma   13.89435050
_symmetry_Int_Tables_number   1
_chemical_formula_structural   Al2CoO4
_chemical_formula_sum   'Al20 Co10 O40'
_cell_volume   685.05156035
_cell_formula_units_Z   10
loop_
 _symmetry_equiv_pos_site_id
 _symmetry_equiv_pos_as_xyz
  1  'x, y, z'
loop_
 _atom_site_type_symbol
 _atom_site_label
 _atom_site_symmetry_multiplicity
 _atom_site_fract_x
 _atom_site_fract_y
 _atom_site_fract_z
 _atom_site_occupancy
  Al  Al0  1  0.64901100  0.64901100  0.64901100  1
  Al  Al1  1  0.12158600  0.63196800  0.12158600  1
  Al  Al2  1  0.24969400  0.24969400  0.24969400  1
  Al  Al3  1  0.63196800  0.12158600  0.12158600  1
  Al  Al4  1  0.12158600  0.12158600  0.63196800  1
  Al  Al5  1  0.72289900  0.22906200  0.72289900  1
  Al  Al6  1  0.22906200  0.72289900  0.72289900  1
  Al  Al7  1  0.32468700  0.82544400  0.32468700  1
  Al  Al8  1  0.72289900  0.72289900  0.22906200  1
  Al  Al9  1  0.52478700  0.52478700  0.52478700  1
  Al  Al10  1  0.82544400  0.32468700  0.32468700  1
  Al  Al11  1  0.32468700  0.32468700  0.82544400  1
  Al  Al12  1  0.92486300  0.42466900  0.92486300  1
  Al  Al13  1  0.42466900  0.92486300  0.92486300  1
  Al  Al14  1  0.12486500  0.12486500  0.12486500  1
  Al  Al15  1  0.52322600  0.02904200  0.52322600  1
  Al  Al16  1  0.92486300  0.92486300  0.42466900  1
  Al  Al17  1  0.72491300  0.72491300  0.72491300  1
  Al  Al18  1  0.02904200  0.52322600  0.52322600  1
  Al  Al19  1  0.52322600  0.52322600  0.02904200  1
  Co  Co20  1  0.00076800  0.00076800  0.00076800  1
  Co  Co21  1  0.32560100  0.32560100  0.32560100  1
  Co  Co22  1  0.60053800  0.60053800  0.60053800  1
  Co  Co23  1  0.92521600  0.92521600  0.92521600  1
  Co  Co24  1  0.19998800  0.19998800  0.19998800  1
  Co  Co25  1  0.85037100  0.85037100  0.85037100  1
  Co  Co26  1  0.44994700  0.44994700  0.44994700  1
  Co  Co27  1  0.79977700  0.79977700  0.79977700  1
  Co  Co28  1  0.04920300  0.04920300  0.04920300  1
  Co  Co29  1  0.40019300  0.40019300  0.40019300  1
  O  O30  1  0.46771000  0.46771000  0.98363600  1
  O  O31  1  0.27603600  0.27603600  0.27603600  1
  O  O32  1  0.98363600  0.46771000  0.46771000  1
  O  O33  1  0.46771000  0.98363600  0.46771000  1
  O  O34  1  0.07199800  0.07199800  0.57547300  1
  O  O35  1  0.79111800  0.24950000  0.79111800  1
  O  O36  1  0.97269000  0.97269000  0.97269000  1
  O  O37  1  0.24950000  0.79111800  0.79111800  1
  O  O38  1  0.87893800  0.87893800  0.87893800  1
  O  O39  1  0.57547300  0.07199800  0.07199800  1
  O  O40  1  0.07199800  0.57547300  0.07199800  1
  O  O41  1  0.79111800  0.79111800  0.24950000  1
  O  O42  1  0.65540100  0.65540100  0.21155500  1
  O  O43  1  0.39598500  0.83520000  0.39598500  1
  O  O44  1  0.57223900  0.57223900  0.57223900  1
  O  O45  1  0.21155500  0.65540100  0.65540100  1
  O  O46  1  0.83520000  0.39598500  0.39598500  1
  O  O47  1  0.47801800  0.47801800  0.47801800  1
  O  O48  1  0.65540100  0.21155500  0.65540100  1
  O  O49  1  0.39598500  0.39598500  0.83520000  1
  O  O50  1  0.25459000  0.25459000  0.81280500  1
  O  O51  1  0.99525200  0.43752100  0.99525200  1
  O  O52  1  0.43752100  0.99525200  0.99525200  1
  O  O53  1  0.17216000  0.17216000  0.17216000  1
  O  O54  1  0.07759000  0.07759000  0.07759000  1
  O  O55  1  0.81280500  0.25459000  0.25459000  1
  O  O56  1  0.25459000  0.81280500  0.25459000  1
  O  O57  1  0.99525200  0.99525200  0.43752100  1
  O  O58  1  0.85192700  0.85192700  0.41775200  1
  O  O59  1  0.59553800  0.03689200  0.59553800  1
  O  O60  1  0.03689200  0.59553800  0.59553800  1
  O  O61  1  0.77206300  0.77206300  0.77206300  1
  O  O62  1  0.67499900  0.67499900  0.67499900  1
  O  O63  1  0.41775200  0.85192700  0.85192700  1
  O  O64  1  0.85192700  0.41775200  0.85192700  1
  O  O65  1  0.59553800  0.59553800  0.03689200  1
  O  O66  1  0.19079100  0.65196200  0.19079100  1
  O  O67  1  0.37277200  0.37277200  0.37277200  1
  O  O68  1  0.65196200  0.19079100  0.19079100  1
  O  O69  1  0.19079100  0.19079100  0.65196200  1
