# generated using pymatgen
data_Dy2Ni2Sn
_symmetry_space_group_name_H-M   'P 1'
_cell_length_a   5.45296442
_cell_length_b   5.45296442
_cell_length_c   5.45296442
_cell_angle_alpha   133.81956345
_cell_angle_beta   116.64799012
_cell_angle_gamma   81.90021960
_symmetry_Int_Tables_number   1
_chemical_formula_structural   Dy2Ni2Sn
_chemical_formula_sum   'Dy2 Ni2 Sn1'
_cell_volume   100.88032646
_cell_formula_units_Z   1
loop_
 _symmetry_equiv_pos_site_id
 _symmetry_equiv_pos_as_xyz
  1  'x, y, z'
loop_
 _atom_site_type_symbol
 _atom_site_label
 _atom_site_symmetry_multiplicity
 _atom_site_fract_x
 _atom_site_fract_y
 _atom_site_fract_z
 _atom_site_occupancy
  Dy  Dy0  1  0.29668200  0.79668200  0.50000000  1
  Dy  Dy1  1  0.70331800  0.20331800  0.50000000  1
  Ni  Ni2  1  0.70783500  0.50000000  0.20783500  1
  Ni  Ni3  1  0.29216500  0.50000000  0.79216500  1
  Sn  Sn4  1  0.00000000  0.00000000  0.00000000  1
