# generated using pymatgen
data_FeCuS2
_symmetry_space_group_name_H-M   'P 1'
_cell_length_a   6.32576447
_cell_length_b   6.32576447
_cell_length_c   6.32576447
_cell_angle_alpha   130.82950969
_cell_angle_beta   130.82950969
_cell_angle_gamma   72.08409267
_symmetry_Int_Tables_number   1
_chemical_formula_structural   FeCuS2
_chemical_formula_sum   'Fe2 Cu2 S4'
_cell_volume   141.71276683
_cell_formula_units_Z   2
loop_
 _symmetry_equiv_pos_site_id
 _symmetry_equiv_pos_as_xyz
  1  'x, y, z'
loop_
 _atom_site_type_symbol
 _atom_site_label
 _atom_site_symmetry_multiplicity
 _atom_site_fract_x
 _atom_site_fract_y
 _atom_site_fract_z
 _atom_site_occupancy
  Fe  Fe0  1  0.75000000  0.25000000  0.50000000  1
  Fe  Fe1  1  0.00000000  0.00000000  0.00000000  1
  Cu  Cu2  1  0.50000000  0.50000000  0.00000000  1
  Cu  Cu3  1  0.25000000  0.75000000  0.50000000  1
  S  S4  1  0.63305500  0.62500000  0.50805500  1
  S  S5  1  0.37500000  0.88305500  0.00805500  1
  S  S6  1  0.11694500  0.12500000  0.49194500  1
  S  S7  1  0.87500000  0.36694500  0.99194500  1
