# generated using pymatgen
data_YFeO3
_symmetry_space_group_name_H-M   'P 1'
_cell_length_a   6.16736769
_cell_length_b   6.16736769
_cell_length_c   11.84594400
_cell_angle_alpha   90.00000000
_cell_angle_beta   90.00000000
_cell_angle_gamma   119.99999663
_symmetry_Int_Tables_number   1
_chemical_formula_structural   YFeO3
_chemical_formula_sum   'Y6 Fe6 O18'
_cell_volume   390.21144535
_cell_formula_units_Z   6
loop_
 _symmetry_equiv_pos_site_id
 _symmetry_equiv_pos_as_xyz
  1  'x, y, z'
loop_
 _atom_site_type_symbol
 _atom_site_label
 _atom_site_symmetry_multiplicity
 _atom_site_fract_x
 _atom_site_fract_y
 _atom_site_fract_z
 _atom_site_occupancy
  Y  Y0  1  0.66666700  0.33333300  0.23343500  1
  Y  Y1  1  0.33333300  0.66666700  0.73343500  1
  Y  Y2  1  0.66666700  0.33333300  0.73343500  1
  Y  Y3  1  0.33333300  0.66666700  0.23343500  1
  Y  Y4  1  0.00000000  0.00000000  0.77563500  1
  Y  Y5  1  0.00000000  0.00000000  0.27563500  1
  Fe  Fe6  1  0.66599100  0.00000000  0.50092600  1
  Fe  Fe7  1  0.66599100  0.66599100  0.00092600  1
  Fe  Fe8  1  0.00000000  0.33400900  0.00092600  1
  Fe  Fe9  1  0.00000000  0.66599100  0.50092600  1
  Fe  Fe10  1  0.33400900  0.33400900  0.50092600  1
  Fe  Fe11  1  0.33400900  0.00000000  0.00092600  1
  O  O12  1  0.66666700  0.33333300  0.02091500  1
  O  O13  1  0.33333300  0.66666700  0.52091500  1
  O  O14  1  0.66666700  0.33333300  0.52091500  1
  O  O15  1  0.33333300  0.66666700  0.02091500  1
  O  O16  1  0.00000000  0.00000000  0.97776400  1
  O  O17  1  0.00000000  0.00000000  0.47776400  1
  O  O18  1  0.35931000  0.00000000  0.83799300  1
  O  O19  1  0.35931000  0.35931000  0.33799300  1
  O  O20  1  0.00000000  0.64069000  0.33799300  1
  O  O21  1  0.00000000  0.35931000  0.83799300  1
  O  O22  1  0.64069000  0.64069000  0.83799300  1
  O  O23  1  0.64069000  0.00000000  0.33799300  1
  O  O24  1  0.30703100  0.00000000  0.16538200  1
  O  O25  1  0.30703100  0.30703100  0.66538200  1
  O  O26  1  0.00000000  0.69296900  0.66538200  1
  O  O27  1  0.00000000  0.30703100  0.16538200  1
  O  O28  1  0.69296900  0.69296900  0.16538200  1
  O  O29  1  0.69296900  0.00000000  0.66538200  1
