# generated using pymatgen
data_Ca2FeMoO6
_symmetry_space_group_name_H-M   'P 1'
_cell_length_a   5.59719200
_cell_length_b   5.45761100
_cell_length_c   9.50223220
_cell_angle_alpha   55.48112557
_cell_angle_beta   90.00000000
_cell_angle_gamma   90.00000000
_symmetry_Int_Tables_number   1
_chemical_formula_structural   Ca2FeMoO6
_chemical_formula_sum   'Ca4 Fe2 Mo2 O12'
_cell_volume   239.16288034
_cell_formula_units_Z   2
loop_
 _symmetry_equiv_pos_site_id
 _symmetry_equiv_pos_as_xyz
  1  'x, y, z'
loop_
 _atom_site_type_symbol
 _atom_site_label
 _atom_site_symmetry_multiplicity
 _atom_site_fract_x
 _atom_site_fract_y
 _atom_site_fract_z
 _atom_site_occupancy
  Ca  Ca0  1  0.94774500  0.26594700  0.24578800  1
  Ca  Ca1  1  0.44774500  0.73405300  0.25421200  1
  Ca  Ca2  1  0.05225500  0.73405300  0.75421200  1
  Ca  Ca3  1  0.55225500  0.26594700  0.74578800  1
  Fe  Fe4  1  0.00000000  0.50000000  0.50000000  1
  Fe  Fe5  1  0.50000000  0.50000000  0.00000000  1
  Mo  Mo6  1  0.00000000  0.00000000  0.00000000  1
  Mo  Mo7  1  0.50000000  0.00000000  0.50000000  1
  O  O8  1  0.70550000  0.34903300  0.45131800  1
  O  O9  1  0.20550000  0.65096700  0.04868200  1
  O  O10  1  0.29450000  0.65096700  0.54868200  1
  O  O11  1  0.79450000  0.34903300  0.95131800  1
  O  O12  1  0.78534600  0.75950800  0.54818200  1
  O  O13  1  0.28534600  0.24049200  0.95181800  1
  O  O14  1  0.21465400  0.24049200  0.45181800  1
  O  O15  1  0.71465400  0.75950800  0.04818200  1
  O  O16  1  0.52934000  0.15990900  0.24810600  1
  O  O17  1  0.02934000  0.84009100  0.25189400  1
  O  O18  1  0.97066000  0.15990900  0.74810600  1
  O  O19  1  0.47066000  0.84009100  0.75189400  1
