# generated using pymatgen
data_Mn4Nb2O9
_symmetry_space_group_name_H-M   'P 1'
_cell_length_a   5.73055574
_cell_length_b   5.73055574
_cell_length_c   13.42083783
_cell_angle_alpha   87.59318731
_cell_angle_beta   87.59318731
_cell_angle_gamma   56.21571357
_symmetry_Int_Tables_number   1
_chemical_formula_structural   Mn4Nb2O9
_chemical_formula_sum   'Mn8 Nb4 O18'
_cell_volume   365.89204960
_cell_formula_units_Z   2
loop_
 _symmetry_equiv_pos_site_id
 _symmetry_equiv_pos_as_xyz
  1  'x, y, z'
loop_
 _atom_site_type_symbol
 _atom_site_label
 _atom_site_symmetry_multiplicity
 _atom_site_fract_x
 _atom_site_fract_y
 _atom_site_fract_z
 _atom_site_occupancy
  Mn  Mn0  1  0.99471600  0.99643900  0.49895100  1
  Mn  Mn1  1  0.99643900  0.99471600  0.99895100  1
  Mn  Mn2  1  0.95185200  0.96203100  0.73830200  1
  Mn  Mn3  1  0.62585800  0.61184400  0.40458000  1
  Mn  Mn4  1  0.29325800  0.29242300  0.07403600  1
  Mn  Mn5  1  0.96203100  0.95185200  0.23830200  1
  Mn  Mn6  1  0.61184400  0.62585800  0.90458000  1
  Mn  Mn7  1  0.29242300  0.29325800  0.57403600  1
  Nb  Nb8  1  0.67409200  0.66210600  0.16225600  1
  Nb  Nb9  1  0.32286400  0.34161800  0.84034300  1
  Nb  Nb10  1  0.66210600  0.67409200  0.66225600  1
  Nb  Nb11  1  0.34161800  0.32286400  0.34034300  1
  O  O12  1  0.72001400  0.97098400  0.60381900  1
  O  O13  1  0.40293900  0.65261900  0.25763300  1
  O  O14  1  0.05570500  0.32269200  0.92279000  1
  O  O15  1  0.74739200  0.17493600  0.36879500  1
  O  O16  1  0.44222500  0.82205400  0.04732200  1
  O  O17  1  0.10144300  0.48418600  0.71353500  1
  O  O18  1  0.25936700  0.57248600  0.45640700  1
  O  O19  1  0.89937500  0.27314300  0.13252200  1
  O  O20  1  0.57374500  0.93920600  0.79666100  1
  O  O21  1  0.27314300  0.89937500  0.63252200  1
  O  O22  1  0.93920600  0.57374500  0.29666100  1
  O  O23  1  0.57248600  0.25936700  0.95640700  1
  O  O24  1  0.82205400  0.44222500  0.54732200  1
  O  O25  1  0.48418600  0.10144300  0.21353500  1
  O  O26  1  0.17493600  0.74739200  0.86879500  1
  O  O27  1  0.32269200  0.05570500  0.42279000  1
  O  O28  1  0.97098400  0.72001400  0.10381900  1
  O  O29  1  0.65261900  0.40293900  0.75763300  1
