# generated using pymatgen
data_Ho5Si4
_symmetry_space_group_name_H-M   'P 1'
_cell_length_a   7.38568700
_cell_length_b   7.66687400
_cell_length_c   14.50025700
_cell_angle_alpha   90.00000000
_cell_angle_beta   90.00000000
_cell_angle_gamma   90.00000000
_symmetry_Int_Tables_number   1
_chemical_formula_structural   Ho5Si4
_chemical_formula_sum   'Ho20 Si16'
_cell_volume   821.07896133
_cell_formula_units_Z   4
loop_
 _symmetry_equiv_pos_site_id
 _symmetry_equiv_pos_as_xyz
  1  'x, y, z'
loop_
 _atom_site_type_symbol
 _atom_site_label
 _atom_site_symmetry_multiplicity
 _atom_site_fract_x
 _atom_site_fract_y
 _atom_site_fract_z
 _atom_site_occupancy
  Ho  Ho0  1  0.65061600  0.98752000  0.25000000  1
  Ho  Ho1  1  0.15061600  0.51248000  0.25000000  1
  Ho  Ho2  1  0.84938400  0.48752000  0.75000000  1
  Ho  Ho3  1  0.34938400  0.01248000  0.75000000  1
  Ho  Ho4  1  0.97418200  0.81773500  0.09775500  1
  Ho  Ho5  1  0.47418200  0.68226500  0.40224500  1
  Ho  Ho6  1  0.52581800  0.31773500  0.90224500  1
  Ho  Ho7  1  0.02581800  0.18226500  0.59775500  1
  Ho  Ho8  1  0.02581800  0.18226500  0.90224500  1
  Ho  Ho9  1  0.52581800  0.31773500  0.59775500  1
  Ho  Ho10  1  0.47418200  0.68226500  0.09775500  1
  Ho  Ho11  1  0.97418200  0.81773500  0.40224500  1
  Ho  Ho12  1  0.68074400  0.82047200  0.87681300  1
  Ho  Ho13  1  0.18074400  0.67952800  0.62318700  1
  Ho  Ho14  1  0.81925600  0.32047200  0.12318700  1
  Ho  Ho15  1  0.31925600  0.17952800  0.37681300  1
  Ho  Ho16  1  0.31925600  0.17952800  0.12318700  1
  Ho  Ho17  1  0.81925600  0.32047200  0.37681300  1
  Ho  Ho18  1  0.18074400  0.67952800  0.87681300  1
  Ho  Ho19  1  0.68074400  0.82047200  0.62318700  1
  Si  Si20  1  0.76895200  0.62822800  0.25000000  1
  Si  Si21  1  0.26895200  0.87177200  0.25000000  1
  Si  Si22  1  0.73104800  0.12822800  0.75000000  1
  Si  Si23  1  0.23104800  0.37177200  0.75000000  1
  Si  Si24  1  0.02285100  0.10323600  0.25000000  1
  Si  Si25  1  0.52285100  0.39676400  0.25000000  1
  Si  Si26  1  0.47714900  0.60323600  0.75000000  1
  Si  Si27  1  0.97714900  0.89676400  0.75000000  1
  Si  Si28  1  0.85182500  0.52870400  0.96021300  1
  Si  Si29  1  0.35182500  0.97129600  0.53978700  1
  Si  Si30  1  0.64817500  0.02870400  0.03978700  1
  Si  Si31  1  0.14817500  0.47129600  0.46021300  1
  Si  Si32  1  0.14817500  0.47129600  0.03978700  1
  Si  Si33  1  0.64817500  0.02870400  0.46021300  1
  Si  Si34  1  0.35182500  0.97129600  0.96021300  1
  Si  Si35  1  0.85182500  0.52870400  0.53978700  1
