# generated using pymatgen
data_CaFeO3
_symmetry_space_group_name_H-M   'P 1'
_cell_length_a   5.37098506
_cell_length_b   5.50277701
_cell_length_c   7.66960104
_cell_angle_alpha   89.99956389
_cell_angle_beta   88.82901138
_cell_angle_gamma   90.00498281
_symmetry_Int_Tables_number   1
_chemical_formula_structural   CaFeO3
_chemical_formula_sum   'Ca4 Fe4 O12'
_cell_volume   226.63027305
_cell_formula_units_Z   4
loop_
 _symmetry_equiv_pos_site_id
 _symmetry_equiv_pos_as_xyz
  1  'x, y, z'
loop_
 _atom_site_type_symbol
 _atom_site_label
 _atom_site_symmetry_multiplicity
 _atom_site_fract_x
 _atom_site_fract_y
 _atom_site_fract_z
 _atom_site_occupancy
  Ca  Ca0  1  0.51111100  0.54943600  0.75149000  1
  Ca  Ca1  1  0.48888700  0.45055700  0.24851500  1
  Ca  Ca2  1  0.98908200  0.04937500  0.74849400  1
  Ca  Ca3  1  0.01091600  0.95062200  0.25150800  1
  Fe  Fe4  1  0.99999800  0.50000500  0.99998900  1
  Fe  Fe5  1  0.00001500  0.50000000  0.49999500  1
  Fe  Fe6  1  0.49998900  0.00002100  0.49999400  1
  Fe  Fe7  1  0.50001200  0.99999100  0.00000100  1
  O  O8  1  0.42493100  0.98472700  0.74474900  1
  O  O9  1  0.92499200  0.51535300  0.24479800  1
  O  O10  1  0.07500200  0.48464900  0.75520600  1
  O  O11  1  0.57506800  0.01527100  0.25524900  1
  O  O12  1  0.21346800  0.19935400  0.04160900  1
  O  O13  1  0.20099900  0.21098300  0.45945800  1
  O  O14  1  0.70116600  0.28925300  0.95957000  1
  O  O15  1  0.79900900  0.78901600  0.54054500  1
  O  O16  1  0.28623300  0.69907300  0.45841400  1
  O  O17  1  0.78653100  0.80064200  0.95839300  1
  O  O18  1  0.71376100  0.30092400  0.54158600  1
  O  O19  1  0.29883000  0.71074800  0.04043400  1
