# generated using pymatgen
data_CeCu9Sn4
_symmetry_space_group_name_H-M   'P 1'
_cell_length_a   8.72208298
_cell_length_b   8.72208298
_cell_length_c   8.72208298
_cell_angle_alpha   116.98973499
_cell_angle_beta   116.98973499
_cell_angle_gamma   95.29814083
_symmetry_Int_Tables_number   1
_chemical_formula_structural   CeCu9Sn4
_chemical_formula_sum   'Ce2 Cu18 Sn8'
_cell_volume   488.27535774
_cell_formula_units_Z   2
loop_
 _symmetry_equiv_pos_site_id
 _symmetry_equiv_pos_as_xyz
  1  'x, y, z'
loop_
 _atom_site_type_symbol
 _atom_site_label
 _atom_site_symmetry_multiplicity
 _atom_site_fract_x
 _atom_site_fract_y
 _atom_site_fract_z
 _atom_site_occupancy
  Ce  Ce0  1  0.25000000  0.25000000  0.00000000  1
  Ce  Ce1  1  0.75000000  0.75000000  0.00000000  1
  Cu  Cu2  1  0.82668700  0.32668700  0.87933000  1
  Cu  Cu3  1  0.17331300  0.67331300  0.12067000  1
  Cu  Cu4  1  0.44735700  0.94735700  0.12067000  1
  Cu  Cu5  1  0.32668700  0.44735700  0.50000000  1
  Cu  Cu6  1  0.05264300  0.17331300  0.50000000  1
  Cu  Cu7  1  0.55264300  0.05264300  0.87933000  1
  Cu  Cu8  1  0.67331300  0.55264300  0.50000000  1
  Cu  Cu9  1  0.94735700  0.82668700  0.50000000  1
  Cu  Cu10  1  0.50000000  0.00000000  0.50000000  1
  Cu  Cu11  1  0.00000000  0.50000000  0.50000000  1
  Cu  Cu12  1  0.28633400  0.78633400  0.71311200  1
  Cu  Cu13  1  0.71366600  0.21366600  0.28688800  1
  Cu  Cu14  1  0.07322200  0.57322200  0.28688800  1
  Cu  Cu15  1  0.78633400  0.07322200  0.50000000  1
  Cu  Cu16  1  0.42677800  0.71366600  0.50000000  1
  Cu  Cu17  1  0.92677800  0.42677800  0.71311200  1
  Cu  Cu18  1  0.21366600  0.92677800  0.50000000  1
  Cu  Cu19  1  0.57322200  0.28633400  0.50000000  1
  Sn  Sn20  1  0.21733800  0.04593000  0.26326900  1
  Sn  Sn21  1  0.78266200  0.95407000  0.73673100  1
  Sn  Sn22  1  0.04593000  0.78266200  0.82859200  1
  Sn  Sn23  1  0.71733800  0.45407000  0.17140800  1
  Sn  Sn24  1  0.95407000  0.21733800  0.17140800  1
  Sn  Sn25  1  0.28266200  0.54593000  0.82859200  1
  Sn  Sn26  1  0.54593000  0.71733800  0.26326900  1
  Sn  Sn27  1  0.45407000  0.28266200  0.73673100  1
