# generated using pymatgen
data_Ca2NiWO6
_symmetry_space_group_name_H-M   'P 1'
_cell_length_a   5.58393085
_cell_length_b   5.58393085
_cell_length_c   5.54494663
_cell_angle_alpha   60.28020966
_cell_angle_beta   60.28020966
_cell_angle_gamma   60.85345681
_symmetry_Int_Tables_number   1
_chemical_formula_structural   Ca2NiWO6
_chemical_formula_sum   'Ca2 Ni1 W1 O6'
_cell_volume   123.54804644
_cell_formula_units_Z   1
loop_
 _symmetry_equiv_pos_site_id
 _symmetry_equiv_pos_as_xyz
  1  'x, y, z'
loop_
 _atom_site_type_symbol
 _atom_site_label
 _atom_site_symmetry_multiplicity
 _atom_site_fract_x
 _atom_site_fract_y
 _atom_site_fract_z
 _atom_site_occupancy
  Ca  Ca0  1  0.21606900  0.28433900  0.24695800  1
  Ca  Ca1  1  0.71566100  0.78393100  0.75304200  1
  Ni  Ni2  1  0.51695500  0.48304500  0.50000000  1
  W  W3  1  0.01905800  0.98094200  0.00000000  1
  O  O4  1  0.78755500  0.72394500  0.23594600  1
  O  O5  1  0.27605500  0.21244500  0.76405400  1
  O  O6  1  0.79039200  0.22285000  0.74656800  1
  O  O7  1  0.77715000  0.20960800  0.25343200  1
  O  O8  1  0.27525700  0.72916100  0.76058800  1
  O  O9  1  0.27083900  0.72474300  0.23941200  1
