# generated using pymatgen
data_Ca2Mn2V3AgO12
_symmetry_space_group_name_H-M   'P 1'
_cell_length_a   11.06451609
_cell_length_b   11.06451609
_cell_length_c   11.06451609
_cell_angle_alpha   109.69226289
_cell_angle_beta   109.69226289
_cell_angle_gamma   109.03003490
_symmetry_Int_Tables_number   1
_chemical_formula_structural   Ca2Mn2V3AgO12
_chemical_formula_sum   'Ca8 Mn8 V12 Ag4 O48'
_cell_volume   1042.69211267
_cell_formula_units_Z   4
loop_
 _symmetry_equiv_pos_site_id
 _symmetry_equiv_pos_as_xyz
  1  'x, y, z'
loop_
 _atom_site_type_symbol
 _atom_site_label
 _atom_site_symmetry_multiplicity
 _atom_site_fract_x
 _atom_site_fract_y
 _atom_site_fract_z
 _atom_site_occupancy
  Ca  Ca0  1  0.62500000  0.25381200  0.12881200  1
  Ca  Ca1  1  0.24618800  0.87500000  0.87118800  1
  Ca  Ca2  1  0.62500000  0.75381200  0.62881200  1
  Ca  Ca3  1  0.00381200  0.37500000  0.12881200  1
  Ca  Ca4  1  0.74618800  0.87500000  0.37118800  1
  Ca  Ca5  1  0.12500000  0.49618800  0.87118800  1
  Ca  Ca6  1  0.50381200  0.37500000  0.62881200  1
  Ca  Ca7  1  0.12500000  0.99618800  0.37118800  1
  Mn  Mn8  1  0.37500000  0.12500000  0.75000000  1
  Mn  Mn9  1  0.37500000  0.12500000  0.25000000  1
  Mn  Mn10  1  0.87500000  0.62500000  0.75000000  1
  Mn  Mn11  1  0.37500000  0.62500000  0.75000000  1
  Mn  Mn12  1  0.37500000  0.62500000  0.25000000  1
  Mn  Mn13  1  0.87500000  0.12500000  0.25000000  1
  Mn  Mn14  1  0.87500000  0.12500000  0.75000000  1
  Mn  Mn15  1  0.87500000  0.62500000  0.25000000  1
  V  V16  1  0.75296400  0.37500000  0.87796400  1
  V  V17  1  0.12500000  0.74703600  0.12203600  1
  V  V18  1  0.75000000  0.25000000  0.50000000  1
  V  V19  1  0.25000000  0.75000000  0.50000000  1
  V  V20  1  0.62500000  0.00296400  0.87796400  1
  V  V21  1  0.49703600  0.87500000  0.12203600  1
  V  V22  1  0.25296400  0.37500000  0.37796400  1
  V  V23  1  0.12500000  0.24703600  0.62203600  1
  V  V24  1  0.50000000  0.50000000  0.00000000  1
  V  V25  1  0.00000000  0.00000000  0.00000000  1
  V  V26  1  0.62500000  0.50296400  0.37796400  1
  V  V27  1  0.99703600  0.87500000  0.62203600  1
  Ag  Ag28  1  0.50000000  0.00000000  0.50000000  1
  Ag  Ag29  1  0.00000000  0.50000000  0.50000000  1
  Ag  Ag30  1  0.75000000  0.75000000  0.00000000  1
  Ag  Ag31  1  0.25000000  0.25000000  0.00000000  1
  O  O32  1  0.57515100  0.22738800  0.46279400  1
  O  O33  1  0.76618700  0.50942900  0.34049600  1
  O  O34  1  0.78830100  0.41573800  0.05812400  1
  O  O35  1  0.57430900  0.23381300  0.74324200  1
  O  O36  1  0.26618700  0.92569100  0.25675800  1
  O  O37  1  0.27261200  0.92484900  0.53720600  1
  O  O38  1  0.48017700  0.03830100  0.87256300  1
  O  O39  1  0.66893300  0.00942900  0.74324200  1
  O  O40  1  0.76982300  0.14238700  0.05812400  1
  O  O41  1  0.77261200  0.23540600  0.34776300  1
  O  O42  1  0.99057100  0.73381300  0.65950400  1
  O  O43  1  0.16573800  0.60761300  0.12743700  1
  O  O44  1  0.46169900  0.01982300  0.12743700  1
  O  O45  1  0.07515100  0.61235700  0.34776300  1
  O  O46  1  0.38764300  0.73540600  0.46279400  1
  O  O47  1  0.89238700  0.33426200  0.87256300  1
  O  O48  1  0.26459400  0.72738800  0.65223700  1
  O  O49  1  0.08426200  0.71169900  0.94187600  1
  O  O50  1  0.76459400  0.11235700  0.53720600  1
  O  O51  1  0.58106700  0.82430900  0.84049600  1
  O  O52  1  0.67569100  0.91893300  0.15950400  1
  O  O53  1  0.35761300  0.73017700  0.94187600  1
  O  O54  1  0.49057100  0.83106700  0.25675800  1
  O  O55  1  0.86235700  0.82515100  0.84776300  1
  O  O56  1  0.25942900  0.41893300  0.24324200  1
  O  O57  1  0.88764300  0.42484900  0.65223700  1
  O  O58  1  0.39238700  0.51982300  0.55812400  1
  O  O59  1  0.07430900  0.33106700  0.34049600  1
  O  O60  1  0.16893300  0.42569100  0.65950400  1
  O  O61  1  0.98540600  0.13764300  0.96279400  1
  O  O62  1  0.66573800  0.53830100  0.55812400  1
  O  O63  1  0.48540600  0.52261200  0.84776300  1
  O  O64  1  0.85761300  0.91573800  0.62743700  1
  O  O65  1  0.36235700  0.51459400  0.03720600  1
  O  O66  1  0.67484900  0.63764300  0.15223700  1
  O  O67  1  0.28830100  0.23017700  0.37256300  1
  O  O68  1  0.58426200  0.64238700  0.37256300  1
  O  O69  1  0.75942900  0.51618700  0.84049600  1
  O  O70  1  0.97738800  0.01459400  0.15223700  1
  O  O71  1  0.98017700  0.10761300  0.44187600  1
  O  O72  1  0.08106700  0.24057100  0.75675800  1
  O  O73  1  0.26982300  0.21169900  0.62743700  1
  O  O74  1  0.47738800  0.32515100  0.96279400  1
  O  O75  1  0.48381300  0.32430900  0.24324200  1
  O  O76  1  0.17569100  0.01618700  0.75675800  1
  O  O77  1  0.96169900  0.83426200  0.44187600  1
  O  O78  1  0.98381300  0.74057100  0.15950400  1
  O  O79  1  0.17484900  0.02261200  0.03720600  1
