# generated using pymatgen
data_Ho3(GePd)4
_symmetry_space_group_name_H-M   'P 1'
_cell_length_a   8.11491173
_cell_length_b   8.11491173
_cell_length_c   8.11491173
_cell_angle_alpha   150.20879543
_cell_angle_beta   128.05426268
_cell_angle_gamma   61.03670444
_symmetry_Int_Tables_number   1
_chemical_formula_structural   Ho3(GePd)4
_chemical_formula_sum   'Ho3 Ge4 Pd4'
_cell_volume   207.30130613
_cell_formula_units_Z   1
loop_
 _symmetry_equiv_pos_site_id
 _symmetry_equiv_pos_as_xyz
  1  'x, y, z'
loop_
 _atom_site_type_symbol
 _atom_site_label
 _atom_site_symmetry_multiplicity
 _atom_site_fract_x
 _atom_site_fract_y
 _atom_site_fract_z
 _atom_site_occupancy
  Ho  Ho0  1  0.62585400  0.12585400  0.50000000  1
  Ho  Ho1  1  0.37414600  0.87414600  0.50000000  1
  Ho  Ho2  1  0.00000000  0.00000000  0.00000000  1
  Ge  Ge3  1  0.78265100  0.78265100  0.00000000  1
  Ge  Ge4  1  0.21734900  0.21734900  0.00000000  1
  Ge  Ge5  1  0.31112900  0.50000000  0.81112900  1
  Ge  Ge6  1  0.68887100  0.50000000  0.18887100  1
  Pd  Pd7  1  0.37720000  0.67560500  0.70159500  1
  Pd  Pd8  1  0.02599000  0.32439500  0.70159500  1
  Pd  Pd9  1  0.97401000  0.67560500  0.29840500  1
  Pd  Pd10  1  0.62280000  0.32439500  0.29840500  1
