# generated using pymatgen
data_Ba2HoCu3O7
_symmetry_space_group_name_H-M   'P 1'
_cell_length_a   3.83672900
_cell_length_b   3.91933500
_cell_length_c   11.79118600
_cell_angle_alpha   90.00000000
_cell_angle_beta   90.00000000
_cell_angle_gamma   90.00000000
_symmetry_Int_Tables_number   1
_chemical_formula_structural   Ba2HoCu3O7
_chemical_formula_sum   'Ba2 Ho1 Cu3 O7'
_cell_volume   177.30908994
_cell_formula_units_Z   1
loop_
 _symmetry_equiv_pos_site_id
 _symmetry_equiv_pos_as_xyz
  1  'x, y, z'
loop_
 _atom_site_type_symbol
 _atom_site_label
 _atom_site_symmetry_multiplicity
 _atom_site_fract_x
 _atom_site_fract_y
 _atom_site_fract_z
 _atom_site_occupancy
  Ba  Ba0  1  0.50000000  0.50000000  0.81865900  1
  Ba  Ba1  1  0.50000000  0.50000000  0.18134100  1
  Ho  Ho2  1  0.50000000  0.50000000  0.50000000  1
  Cu  Cu3  1  0.00000000  0.00000000  0.64535700  1
  Cu  Cu4  1  0.00000000  0.00000000  0.35464300  1
  Cu  Cu5  1  0.00000000  0.00000000  0.00000000  1
  O  O6  1  0.00000000  0.50000000  0.00000000  1
  O  O7  1  0.50000000  0.00000000  0.61918700  1
  O  O8  1  0.50000000  0.00000000  0.38081300  1
  O  O9  1  0.00000000  0.50000000  0.62036300  1
  O  O10  1  0.00000000  0.50000000  0.37963700  1
  O  O11  1  0.00000000  0.00000000  0.84031800  1
  O  O12  1  0.00000000  0.00000000  0.15968200  1
