# generated using pymatgen
data_SmGe5
_symmetry_space_group_name_H-M   'P 1'
_cell_length_a   6.19267760
_cell_length_b   6.19267760
_cell_length_c   6.19267760
_cell_angle_alpha   142.10405268
_cell_angle_beta   119.95108060
_cell_angle_gamma   73.23853141
_symmetry_Int_Tables_number   1
_chemical_formula_structural   SmGe5
_chemical_formula_sum   'Sm1 Ge5'
_cell_volume   123.87670398
_cell_formula_units_Z   1
loop_
 _symmetry_equiv_pos_site_id
 _symmetry_equiv_pos_as_xyz
  1  'x, y, z'
loop_
 _atom_site_type_symbol
 _atom_site_label
 _atom_site_symmetry_multiplicity
 _atom_site_fract_x
 _atom_site_fract_y
 _atom_site_fract_z
 _atom_site_occupancy
  Sm  Sm0  1  0.00000000  0.00000000  0.00000000  1
  Ge  Ge1  1  0.53808800  0.33009300  0.20799400  1
  Ge  Ge2  1  0.46191200  0.66990700  0.79200600  1
  Ge  Ge3  1  0.87790100  0.66990700  0.20799400  1
  Ge  Ge4  1  0.12209900  0.33009300  0.79200600  1
  Ge  Ge5  1  0.50000000  0.00000000  0.50000000  1
