# generated using pymatgen
data_CrBiO3
_symmetry_space_group_name_H-M   'P 1'
_cell_length_a   5.59996749
_cell_length_b   5.59994029
_cell_length_c   5.62117886
_cell_angle_alpha   90.00011924
_cell_angle_beta   60.12464063
_cell_angle_gamma   60.00024760
_symmetry_Int_Tables_number   1
_chemical_formula_structural   CrBiO3
_chemical_formula_sum   'Cr2 Bi2 O6'
_cell_volume   124.88149851
_cell_formula_units_Z   2
loop_
 _symmetry_equiv_pos_site_id
 _symmetry_equiv_pos_as_xyz
  1  'x, y, z'
loop_
 _atom_site_type_symbol
 _atom_site_label
 _atom_site_symmetry_multiplicity
 _atom_site_fract_x
 _atom_site_fract_y
 _atom_site_fract_z
 _atom_site_occupancy
  Cr  Cr0  1  0.54549700  0.72725300  0.18174400  1
  Cr  Cr1  1  0.54545600  0.22727300  0.68182100  1
  Bi  Bi2  1  0.98977200  0.50511300  0.51534400  1
  Bi  Bi3  1  0.98992800  0.00503600  0.01510700  1
  O  O4  1  0.64884500  0.94938700  0.90065800  1
  O  O5  1  0.50111700  0.44937700  0.40066700  1
  O  O6  1  0.04870700  0.04950200  0.40066700  1
  O  O7  1  0.64882800  0.90178600  0.40067600  1
  O  O8  1  0.50112600  0.54949500  0.90065100  1
  O  O9  1  0.04872400  0.40177700  0.90066400  1
