# generated using pymatgen
data_CaLaMnMoO6
_symmetry_space_group_name_H-M   'P 1'
_cell_length_a   5.60984294
_cell_length_b   5.77462000
_cell_length_c   8.07235025
_cell_angle_alpha   89.99872078
_cell_angle_beta   90.72030227
_cell_angle_gamma   90.00005527
_symmetry_Int_Tables_number   1
_chemical_formula_structural   CaLaMnMoO6
_chemical_formula_sum   'Ca2 La2 Mn2 Mo2 O12'
_cell_volume   261.48079084
_cell_formula_units_Z   2
loop_
 _symmetry_equiv_pos_site_id
 _symmetry_equiv_pos_as_xyz
  1  'x, y, z'
loop_
 _atom_site_type_symbol
 _atom_site_label
 _atom_site_symmetry_multiplicity
 _atom_site_fract_x
 _atom_site_fract_y
 _atom_site_fract_z
 _atom_site_occupancy
  Ca  Ca0  1  0.48869200  0.44462200  0.25447900  1
  Ca  Ca1  1  0.98869500  0.05539500  0.75446900  1
  La  La2  1  0.00912300  0.94712900  0.24360600  1
  La  La3  1  0.50913800  0.55286500  0.74360600  1
  Mn  Mn4  1  0.00032400  0.49761900  0.99987200  1
  Mn  Mn5  1  0.50033100  0.00233700  0.49986400  1
  Mo  Mo6  1  0.50057900  0.00207200  0.99892500  1
  Mo  Mo7  1  0.00058700  0.49791200  0.49893300  1
  O  O8  1  0.09850000  0.46014200  0.74287700  1
  O  O9  1  0.59845600  0.03985900  0.24286200  1
  O  O10  1  0.17929200  0.21834300  0.44778300  1
  O  O11  1  0.67932700  0.28165100  0.94774500  1
  O  O12  1  0.20608100  0.19273100  0.05127200  1
  O  O13  1  0.70608500  0.30726000  0.55128300  1
  O  O14  1  0.29624600  0.69015500  0.44844000  1
  O  O15  1  0.79625500  0.80986100  0.94845700  1
  O  O16  1  0.32456800  0.72017300  0.05483000  1
  O  O17  1  0.82460800  0.77985200  0.55480100  1
  O  O18  1  0.39656500  0.96449000  0.75794500  1
  O  O19  1  0.89654900  0.53553300  0.25794800  1
